
  Symyx   06031522062D 1   1.00000     0.00000     0

 26 25  0     1  0            999 V2000
    4.0452   -4.2413    0.0000 C   0  0  0  0  0  0           0  0  0
    5.0681   -3.6508    0.0000 C   0  0  0  0  0  0           0  0  0
    6.0909   -4.2413    0.0000 C   0  0  0  0  0  0           0  0  0
    7.1138   -3.6508    0.0000 C   0  0  0  0  0  0           0  0  0
    8.1367   -4.2413    0.0000 N   0  0  0  0  0  0           0  0  0
    9.1595   -3.6508    0.0000 C   0  0  0  0  0  0           0  0  0
   10.1824   -4.2413    0.0000 C   0  0  0  0  0  0           0  0  0
   11.2053   -3.6508    0.0000 C   0  0  0  0  0  0           0  0  0
   12.2281   -4.2413    0.0000 C   0  0  0  0  0  0           0  0  0
   13.2510   -3.6508    0.0000 N   0  0  0  0  0  0           0  0  0
   14.2739   -4.2413    0.0000 C   0  0  0  0  0  0           0  0  0
   15.2967   -3.6508    0.0000 C   0  0  0  0  0  0           0  0  0
   16.3196   -4.2413    0.0000 C   0  0  0  0  0  0           0  0  0
    4.0452   -5.4224    0.0000 C   0  0  2  0  0  0           0  0  0
    3.0223   -6.0130    0.0000 N   0  0  0  0  0  0           0  0  0
    5.0681   -6.0130    0.0000 C   0  0  0  0  0  0           0  0  0
    6.0909   -5.4224    0.0000 O   0  0  0  0  0  0           0  0  0
    5.0681   -7.1941    0.0000 O   0  0  0  0  0  0           0  0  0
    9.1595   -2.4697    0.0000 O   0  0  0  0  0  0           0  0  0
   12.2281   -5.4224    0.0000 O   0  0  0  0  0  0           0  0  0
   17.3425   -3.6507    0.0000 C   0  0  0  0  0  0           0  0  0
   18.3653   -4.2413    0.0000 C   0  0  1  0  0  0           0  0  0
   19.3882   -3.6507    0.0000 C   0  0  0  0  0  0           0  0  0
   18.3653   -5.4224    0.0000 N   0  0  0  0  0  0           0  0  0
   19.3882   -2.4696    0.0000 O   0  0  0  0  0  0           0  0  0
   20.4110   -4.2413    0.0000 O   0  0  0  0  0  0           0  0  0
  1  2  1  0     0  0
  2  3  1  0     0  0
  3  4  1  0     0  0
  4  5  1  0     0  0
  5  6  1  0     0  0
  6  7  1  0     0  0
  7  8  2  0     0  0
  8  9  1  0     0  0
  9 10  1  0     0  0
 10 11  1  0     0  0
 11 12  1  0     0  0
 12 13  1  0     0  0
 14  1  1  1     0  0
 14 15  1  0     0  0
 14 16  1  0     0  0
 16 17  2  0     0  0
 16 18  1  0     0  0
  6 19  2  0     0  0
  9 20  2  0     0  0
 13 21  1  0     0  0
 22 21  1  1     0  0
 22 23  1  0     0  0
 22 24  1  0     0  0
 23 25  2  0     0  0
 23 26  1  0     0  0
M  END
> <SUBSTANCE_ID>
182485

> <UNII>
27QNN5AS7N

> <DESC_PART1>
<PROTEIN>
 <SEQUENCE_TYPE>COMPLETE</SEQUENCE_TYPE>
 <NUMBER_OF_SUBUNITS></NUMBER_OF_SUBUNITS>
 <SUBUNIT_GROUP>
 <SUBUNIT>1</SUBUNIT>
 <LENGTH>141</LENGTH>
 <SEQUENCE>VLSAADKGNVKAAWGKVGGHAAEYGAEALERMFLSFPTTKTYFPHFDLSHGSAQVKGHGAKVAAALTKAVEHLDDLPGALSELSDLHAHKLRVDPVNFKLLSHSLLVTLASHLPSDFTPAVHASLDKFLANVSTVLTSKYR
</SEQUENCE>
 </SUBUNIT_GROUP>
 <SUBUNIT_GROUP>
 <SUBUNIT>2</SUBUNIT>
 <LENGTH>141</LENGTH>
 <SEQUENCE>VLSAADKGNVKAAWGKVGGHAAEYGAEALERMFLSFPTTKTYFPHFDLSHGSAQVKGHGAKVAAALTKAVEHLDDLPGALSELSDLHAHKLRVDPVNFKLLSHSLLVTLASHLPSDFTPAVHASLDKFLANVSTVLTSKYR
</SEQUENCE>
 </SUBUNIT_GROUP>
 <SUBUNIT_GROUP>
 <SUBUNIT>3</SUBUNIT>
 <LENGTH>145</LENGTH>
 <SEQUENCE>MLTAEEKAAVTAFWGKVKVDEVGGEALGRLLVVYPWTQRFFESFGDLSTADAVMNNPKVKAHGKKVLDSFSNGMKHLDDLKGTFAALSELHCDKLHVDPENFKLLGNVLVVVLARNFGKEFTPVLQADFQKVVAGVANALAHRYH</SEQUENCE>
 </SUBUNIT_GROUP>
 <SUBUNIT_GROUP>
 <SUBUNIT>4</SUBUNIT>
 <LENGTH>145</LENGTH>
 <SEQUENCE>MLTAEEKAAVTAFWGKVKVDEVGGEALGRLLVVYPWTQRFFESFGDLSTADAVMNNPKVKAHGKKVLDSFSNGMKHLDDLKGTFAALSELHCDKLHVDPENFKLLGNVLVVVLARNFGKEFTPVLQADFQKVVAGVANALAHRYH</SEQUENCE>
 </SUBUNIT_GROUP>
 <DISULFIDE_LINKAGE></DISULFIDE_LINKAGE>
 <OTHER_LINKAGE>
 <SITE>1_99-2_99;</SITE>
 <LINKAGE_TYPE>crosslink</LINKAGE_TYPE>
 </OTHER_LINKAGE>
 <GLYCOSYLATION>
 <GLYCOSYLATION_TYPE />
 <N_GLYCOSYLATION></N_GLYCOSYLATION>
 <O_GLYCOSYLATION></O_GLYCOSYLATION>
 <C_GLYCOSYLATION />
 </GLYCOSYLATION>
 <MODIFICATION_GROUP>
 <PHYSICAL_MODIFICATION_GROUP>
 <ROLE />
 <NUMBER_OF_PARAMETERS>0</NUMBER_OF_PARAMETERS>
 <PARAMETER_GROUP>
 <PARAMETER />
 <AMOUNT>
 <AVERAGE />
 <LOW_LIMIT />
 <HIGH_LIMIT />
 <UNIT />
 <NON_NUMERIC_VALUE />
 </AMOUNT>
 </PARAMETER_GROUP>
 </PHYSICAL_MODIFICATION_GROUP>
 <AGENT_MODIFICATION_GROUP>
 <AGENT_MODIFICATION_TYPE />
 <ROLE />
 <MODIFICATION_AGENT />
 <MODIFICATION_AGENT_ID />
 <MODIFICATION_PROCESS />
 <AMOUNT_TYPE />
 <AMOUNT>
 <AVERAGE />
 <LOW_LIMIT />
 <HIGH_LIMIT />
 <UNIT />
 <NON_NUMERIC_VALUE />
 </AMOUNT>
 </AGENT_MODIFICATION_GROUP>
 <STRUCTURAL_MODIFICATION_GROUP>
 <RESIDUE_MODIFIED>Lys</RESIDUE_MODIFIED>
 <RESIDUE_SITE>1_99</RESIDUE_SITE>
 <NUMBER_OF_FRAGMENTS_MOIETIES />
 <AMOUNT_TYPE />
 <MOLECULAR_FRAGMENT_MOIETY>
 <STRUCTURAL_MODIFICATION_TYPE></STRUCTURAL_MODIFICATION_TYPE>
 <ROLE>AMINO ACID SUBSTITUTION</ROLE>
 <FRAGMENT_NUMBER></FRAGMENT_NUMBER>
 <MOLECULAR_FRAGMENT_NAME></MOLECULAR_FRAGMENT_NAME>
 <MOLECULAR_FRAGMENT_ID />
 <MOLECULAR_FRAGMENT_INCHI></MOLECULAR_FRAGMENT_INCHI>
 <MOLFILE external="1"></MOLFILE>
 <FRAGMENT_CONNECTIVTY>15; 16</FRAGMENT_CONNECTIVTY>
 <AMOUNT>
 <AVERAGE />
 <LOW_LIMIT />
 <HIGH_LIMIT />
 <UNIT />
 <NON_NUMERIC_VALUE />
 </AMOUNT>
 </MOLECULAR_FRAGMENT_MOIETY>
 </STRUCTURAL_MODIFICATION_GROUP>
 <STRUCTURAL_MODIFICATION_GROUP>
 <RESIDUE_MODIFIED>Lys</RESIDUE_MODIFIED>
 <RESIDUE_SITE>2_99</RESIDUE_SITE>
 <NUMBER_OF_FRAGMENTS_MOIETIES />
 <AMOUNT_TYPE />
 <MOLECULAR_FRAGMENT_MOIETY>
 <STRUCTURAL_MODIFICATION_TYPE></STRUCTURAL_MODIFICATION_TYPE>
 <ROLE>AMINO ACID SUBSTITUTION</ROLE>
 <FRAGMENT_NUMBER></FRAGMENT_NUMBER>
 <MOLECULAR_FRAGMENT_NAME></MOLECULAR_FRAGMENT_NAME>
 <MOLECULAR_FRAGMENT_ID />
 <MOLECULAR_FRAGMENT_INCHI></MOLECULAR_FRAGMENT_INCHI>
 <MOLFILE external="1"></MOLFILE>
 <FRAGMENT_CONNECTIVTY>24; 23</FRAGMENT_CONNECTIVTY>
 <AMOUNT>
 <AVERAGE />
 <LOW_LIMIT />
 <HIGH_LIMIT />
 <UNIT />
 <NON_NUMERIC_VALUE />
 </AMOUNT>
 </MOLECULAR_FRAGMENT_MOIETY>
 </STRUCTURAL_MODIFICATION_GROUP>
 <STRUCTURAL_MODIFICATION_GROUP>
 <RESIDUE_MODIFIED>Cys</RESIDUE_MODIFIED>
 <RESIDUE_SITE>3_92; 4_92</RESIDUE_SITE>
 <NUMBER_OF_FRAGMENTS_MOIETIES />
 <AMOUNT_TYPE />
 <MOLECULAR_FRAGMENT_MOIETY>
 <STRUCTURAL_MODIFICATION_TYPE></STRUCTURAL_MODIFICATION_TYPE>
 <ROLE>AMINO ACID SUBSTITUTION</ROLE>
 <FRAGMENT_NUMBER></FRAGMENT_NUMBER>
 <MOLECULAR_FRAGMENT_NAME></MOLECULAR_FRAGMENT_NAME>
 <MOLECULAR_FRAGMENT_ID />
 <MOLECULAR_FRAGMENT_INCHI></MOLECULAR_FRAGMENT_INCHI>
 <MOLFILE><![CDATA[C5H10N2O3S
YUtclcactv06271517022D 0   0.00000     0.00000     1
 
 11 10  0  0  1  0  0  0  0  0999 V2000
    7.1163   -4.5780    0.0000 N   0  0  0  0  0  0  0  0  0  0  0  0
    8.2974   -4.5780    0.0000 C   0  0  0  0  0  0  0  0  0  0  0  0
    8.8879   -5.6009    0.0000 C   0  0  0  0  0  0  0  0  0  0  0  0
    8.8879   -3.5552    0.0000 C   0  0  0  0  0  0  0  0  0  0  0  0
   10.0690   -3.5552    0.0000 S   0  0  0  0  0  0  0  0  0  0  0  0
   10.6596   -2.5323    0.0000 C   0  0  0  0  0  0  0  0  0  0  0  0
   11.8407   -2.5323    0.0000 C   0  0  0  0  0  0  0  0  0  0  0  0
   12.4312   -1.5094    0.0000 O   0  0  0  0  0  0  0  0  0  0  0  0
   12.4312   -3.5552    0.0000 N   0  0  0  0  0  0  0  0  0  0  0  0
   10.0690   -5.6009    0.0000 O   0  0  0  0  0  0  0  0  0  0  0  0
    8.2974   -6.6238    0.0000 O   0  0  0  0  0  0  0  0  0  0  0  0
  1  2  1  0  0  0  0
  2  3  1  0  0  0  0
  2  4  1  1  0  0  0
  4  5  1  0  0  0  0
  5  6  1  0  0  0  0
  6  7  1  0  0  0  0
  7  8  2  0  0  0  0
  7  9  1  0  0  0  0
  3 10  2  0  0  0  0
  3 11  1  0  0  0  0
M  END
]]></MOLFILE>
 <FRAGMENT_CONNECTIVTY>1; 3</FRAGMENT_CONNECTIVTY>
 <AMOUNT>
 <AVERAGE />
 <LOW_LIMIT />
 <HIGH_LIMIT />
 <UNIT />
 <NON_NUMERIC_VALUE />
 </AMOUNT>
 </MOLECULAR_FRAGMENT_MOIETY>
 </STRUCTURAL_MODIFICATION_GROUP>
 </MODIFICATION_GROUP>
 <PROPERTY_GROUP>
 <PROPERTY_TYPE />
 <PROPERTY />
 <PROPERTY_DESCRIPTION>
 <SUBSTANCE_NAME />
 <SUBSTANCE_ID />
 <SUBSTANCE_ID />
 <AMOUNT_TYPE />
 <AMOUNT>
 <AVERAGE />
 <LOW_LIMIT />
 <HIGH_LIMIT />
 <UNIT />
 <NON_NUMERIC_VALUE />
 </AMOUNT>
 </PROPERTY_DESCRIPTION>
 </PROPERTY_GROUP>
 <MOLECULAR_WEIGHT>
 <MOLECULAR_WEIGHT_TYPE />
 <MOLECULAR_WEIGHT_METHOD />
 <AMOUNT>
 <AVERAGE></AVERAGE>
 <LOW_LIMIT />
 <HIGH_LIMIT />
 <UNIT></UNIT>
 <NON_NUMERIC_VALUE />
 </AMOUNT>
 </MOLECULAR_WEIGHT>
 <COMMENTS />
 <PUBLIC_DOMAIN />
</PROTEIN>

> <CDBREGNO>
123278

> <STRUCTURE_ID>
82924

$$$$
