
  Symyx   04271720282D 1   1.00000     0.00000     0

 71 73  0     1  0            999 V2000
    4.8437   -6.0302    0.0000 C   0  0  0  0  0  0           0  0  0
    4.8437   -6.7718    0.0000 O   0  0  0  0  0  0           0  0  0
    4.2001   -5.6593    0.0000 C   0  0  1  0  0  0           0  0  0
    4.2001   -4.9135    0.0000 N   0  0  0  0  0  0           0  0  0
    3.5564   -6.0302    0.0000 C   0  0  0  0  0  0           0  0  0
    2.9128   -5.6593    0.0000 C   0  0  0  0  0  0           0  0  0
    2.2692   -6.0302    0.0000 C   0  0  0  0  0  0           0  0  0
    1.6255   -5.6593    0.0000 N   0  0  0  0  0  0           0  0  0
    0.9818   -6.0302    0.0000 C   0  0  0  0  0  0           0  0  0
    0.9818   -6.7718    0.0000 N   0  0  0  0  0  0           0  0  0
    0.3383   -5.6593    0.0000 N   0  0  0  0  0  0           0  0  0
    5.4831   -5.6593    0.0000 N   0  0  0  0  0  0           0  0  0
    6.1268   -6.0302    0.0000 C   0  0  2  0  0  0           0  0  0
    6.7705   -5.6593    0.0000 C   0  0  0  0  0  0           0  0  0
    6.7705   -4.9135    0.0000 O   0  0  0  0  0  0           0  0  0
    7.4141   -6.0302    0.0000 N   0  0  0  0  0  0           0  0  0
    8.0577   -5.6593    0.0000 C   0  0  2  0  0  0           0  0  0
    8.7014   -6.0302    0.0000 C   0  0  0  0  0  0           0  0  0
    8.7014   -6.7718    0.0000 O   0  0  0  0  0  0           0  0  0
    9.3409   -5.6593    0.0000 N   0  0  0  0  0  0           0  0  0
    9.9844   -6.0302    0.0000 C   0  0  2  0  0  0           0  0  0
   10.6281   -5.6593    0.0000 C   0  0  0  0  0  0           0  0  0
   10.6281   -4.9135    0.0000 O   0  0  0  0  0  0           0  0  0
   11.2718   -6.0302    0.0000 N   0  0  0  0  0  0           0  0  0
   11.9153   -5.6593    0.0000 C   0  0  2  0  0  0           0  0  0
   11.9153   -4.9135    0.0000 C   0  0  0  0  0  0           0  0  0
   11.2718   -4.5427    0.0000 O   0  0  0  0  0  0           0  0  0
   12.5590   -4.5427    0.0000 N   0  0  3  0  0  0           0  0  0
   12.6370   -3.8056    0.0000 C   0  0  2  0  0  0           0  0  0
   12.0822   -3.3077    0.0000 C   0  0  0  0  0  0           0  0  0
   11.3766   -3.5377    0.0000 O   0  0  0  0  0  0           0  0  0
   12.2370   -2.5841    0.0000 N   0  0  0  0  0  0           0  0  0
   11.6864   -2.0862    0.0000 C   0  0  2  0  0  0           0  0  0
   11.8412   -1.3583    0.0000 C   0  0  0  0  0  0           0  0  0
   11.2906   -0.8605    0.0000 O   0  0  0  0  0  0           0  0  0
   12.5467   -1.1284    0.0000 O   0  0  0  0  0  0           0  0  0
   10.9810   -2.3162    0.0000 C   0  0  0  0  0  0           0  0  0
   10.4304   -1.8182    0.0000 C   0  0  0  0  0  0           0  0  0
    9.7208   -2.0482    0.0000 C   0  0  0  0  0  0           0  0  0
    9.1702   -1.5503    0.0000 C   0  0  0  0  0  0           0  0  0
    9.3250   -0.8226    0.0000 C   0  0  0  0  0  0           0  0  0
   10.0305   -0.5926    0.0000 C   0  0  0  0  0  0           0  0  0
   10.5811   -1.0905    0.0000 C   0  0  0  0  0  0           0  0  0
   13.3605   -3.6507    0.0000 C   0  0  0  0  0  0           0  0  0
   13.7313   -4.2943    0.0000 C   0  0  0  0  0  0           0  0  0
   13.2377   -4.8449    0.0000 C   0  0  0  0  0  0           0  0  0
   12.5590   -6.0302    0.0000 C   0  0  0  0  0  0           0  0  0
   12.5590   -6.7718    0.0000 C   0  0  0  0  0  0           0  0  0
   13.1598   -7.2068    0.0000 C   0  0  0  0  0  0           0  0  0
   12.9298   -7.9123    0.0000 N   0  0  0  0  0  0           0  0  0
   12.1881   -7.9123    0.0000 C   0  0  0  0  0  0           0  0  0
   11.9582   -7.2068    0.0000 N   0  0  0  0  0  0           0  0  0
    9.9844   -6.7718    0.0000 C   0  0  2  0  0  0           0  0  0
   10.6281   -7.1427    0.0000 C   0  0  0  0  0  0           0  0  0
   10.6281   -7.8843    0.0000 C   0  0  0  0  0  0           0  0  0
    9.3409   -7.1427    0.0000 C   0  0  0  0  0  0           0  0  0
    8.0577   -4.9135    0.0000 C   0  0  0  0  0  0           0  0  0
    8.7014   -4.5427    0.0000 C   0  0  0  0  0  0           0  0  0
    8.7014   -3.8010    0.0000 C   0  0  0  0  0  0           0  0  0
    9.3409   -3.4302    0.0000 C   0  0  0  0  0  0           0  0  0
    9.9844   -3.8010    0.0000 C   0  0  0  0  0  0           0  0  0
   10.6281   -3.4302    0.0000 O   0  0  0  0  0  0           0  0  0
    9.9844   -4.5427    0.0000 C   0  0  0  0  0  0           0  0  0
    9.3409   -4.9135    0.0000 C   0  0  0  0  0  0           0  0  0
    6.1268   -6.7718    0.0000 C   0  0  3  0  0  0           0  0  0
    5.4831   -7.1427    0.0000 C   0  0  0  0  0  0           0  0  0
    6.7705   -7.1427    0.0000 C   0  0  0  0  0  0           0  0  0
    3.4002   -1.4542    0.0000 C   0  0  0  0  0  0           0  0  0
    3.9461   -1.1279    0.0000 C   0  0  0  0  0  0           0  0  0
    3.9461   -0.4752    0.0000 O   0  0  0  0  0  0           0  0  0
    4.4921   -1.4542    0.0000 O   0  0  0  0  0  0           0  0  0
  3  4  1  6     0  0
  3  5  1  0     0  0
  5  6  1  0     0  0
  6  7  1  0     0  0
  7  8  1  0     0  0
  8  9  1  0     0  0
  9 10  2  0     0  0
  9 11  1  0     0  0
  1 12  1  0     0  0
 12 13  1  0     0  0
 14 13  1  0     0  0
 14 15  2  0     0  0
 14 16  1  0     0  0
 16 17  1  0     0  0
 18 17  1  0     0  0
 18 19  2  0     0  0
 18 20  1  0     0  0
 21 20  1  6     0  0
 22 21  1  0     0  0
 22 23  2  0     0  0
 22 24  1  0     0  0
 24 25  1  0     0  0
 26 25  1  0     0  0
 26 27  2  0     0  0
 26 28  1  0     0  0
 28 29  1  0     0  0
 29 30  1  6     0  0
 30 31  2  0     0  0
 30 32  1  0     0  0
 33 32  1  1     0  0
 34 33  1  0     0  0
 34 35  2  0     0  0
 36 34  1  0     0  0
 33 37  1  0     0  0
 37 38  1  0     0  0
 38 39  1  0     0  0
 39 40  2  0     0  0
 40 41  1  0     0  0
 41 42  2  0     0  0
 42 43  1  0     0  0
 38 43  2  0     0  0
 29 44  1  0     0  0
 44 45  1  0     0  0
 45 46  1  0     0  0
 28 46  1  0     0  0
 25 47  1  6     0  0
 47 48  1  0     0  0
 48 49  2  0     0  0
 49 50  1  0     0  0
 50 51  1  0     0  0
 51 52  2  0     0  0
 48 52  1  0     0  0
 21 53  1  0     0  0
 53 54  1  0     0  0
 54 55  1  0     0  0
 53 56  1  6     0  0
 17 57  1  1     0  0
 57 58  1  0     0  0
 58 59  2  0     0  0
 59 60  1  0     0  0
 60 61  2  0     0  0
 61 62  1  0     0  0
 61 63  1  0     0  0
 63 64  2  0     0  0
 58 64  1  0     0  0
 13 65  1  6     0  0
 65 66  1  0     0  0
 65 67  1  0     0  0
  1  2  2  0     0  0
  1  3  1  0     0  0
 68 69  1  0     0  0
 69 70  2  0     0  0
 69 71  1  0     0  0
M  END
>  <GSRS_JSON>
{"uuid":"a8187a64-2039-47f4-91b4-b375ab226047","created":1338844770000,"createdBy":"CALLAHANL","lastEdited":1534796427848,"lastEditedBy":"YULIA.BORODINA","deprecated":false,"definitionType":"PRIMARY","definitionLevel":"COMPLETE","substanceClass":"protein","status":"approved","version":"2","approvedBy":"SWITZERF","approved":1338845687000,"names":[{"uuid":"6d283df8-ab0c-420e-bc49-4eea48a3aeb1","created":1463773743001,"createdBy":"SWITZERF","lastEdited":1534796427843,"lastEditedBy":"YULIA.BORODINA","deprecated":false,"name":"HYDROLYZED SERICIN (ENZYMATIC; 20000 MW)","type":"cn","domains":[],"languages":["en"],"nameJurisdiction":[],"nameOrgs":[],"preferred":false,"displayName":true,"references":["fad8284e-2cb1-4ea4-bea1-7cba49bab42c","9b87d6c2-88a4-444c-82f7-64e791117e8e","ce671f8a-af49-4ca7-bd2b-3646c5cfe028"],"access":[],"_self":"/ginas/app/api/v1/names(6d283df8-ab0c-420e-bc49-4eea48a3aeb1)?view\u003dfull"},{"uuid":"25dffdc4-24bf-4917-9210-4e18e312c6eb","created":1338845308001,"createdBy":"CALLAHANL","lastEdited":1534796427845,"lastEditedBy":"YULIA.BORODINA","deprecated":false,"name":"HYDROLYZED SERICIN (ENZYMATIC; 15000-25000 MW) COMPONENT OF SETAKOL","type":"bn","domains":[],"languages":["en"],"nameJurisdiction":[],"nameOrgs":[],"preferred":false,"displayName":false,"references":["fad8284e-2cb1-4ea4-bea1-7cba49bab42c","7e443e03-d013-4a3c-b594-a60de39c9af1","9b87d6c2-88a4-444c-82f7-64e791117e8e"],"access":[],"_self":"/ginas/app/api/v1/names(25dffdc4-24bf-4917-9210-4e18e312c6eb)?view\u003dfull"},{"uuid":"35c6003c-0134-4146-a284-7332e7286842","created":1338845245001,"createdBy":"CALLAHANL","lastEdited":1534796427844,"lastEditedBy":"YULIA.BORODINA","deprecated":false,"name":"SETAKOL COMPONENT HYDROLYZED SERICIN (ENZYMATIC; 15000-25000 MW)","type":"bn","domains":[],"languages":["en"],"nameJurisdiction":[],"nameOrgs":[],"preferred":false,"displayName":false,"references":["4d512bd5-1ec6-4fbd-a54e-60304dda4216","fad8284e-2cb1-4ea4-bea1-7cba49bab42c","9b87d6c2-88a4-444c-82f7-64e791117e8e"],"access":[],"_self":"/ginas/app/api/v1/names(35c6003c-0134-4146-a284-7332e7286842)?view\u003dfull"},{"uuid":"a5a86089-1cda-4d9f-9a8a-60c966de8800","created":1338844771001,"createdBy":"CALLAHANL","lastEdited":1534796427842,"lastEditedBy":"YULIA.BORODINA","deprecated":false,"name":"HYDROLYZED SERICIN (ENZYMATIC; 15000-25000 MW)","type":"cn","domains":[],"languages":["en"],"nameJurisdiction":[],"nameOrgs":[],"preferred":false,"displayName":false,"references":["c345aeaa-f339-4e9d-9366-14fd2073bb4f","9b87d6c2-88a4-444c-82f7-64e791117e8e","13cd281c-3216-4719-8705-2fa0866bb4dc"],"access":[],"_self":"/ginas/app/api/v1/names(a5a86089-1cda-4d9f-9a8a-60c966de8800)?view\u003dfull"}],"codes":[{"uuid":"55d155f8-5c61-41f8-9ab8-d9833c3bd790","created":1493461638926,"createdBy":"RAMEZ.GHAZZAOUI","lastEdited":1493461638926,"lastEditedBy":"RAMEZ.GHAZZAOUI","deprecated":false,"codeSystem":"BDNUM","code":"0733904AA","type":"PRIMARY","references":["9b87d6c2-88a4-444c-82f7-64e791117e8e"],"access":["protected"],"_self":"/ginas/app/api/v1/codes(55d155f8-5c61-41f8-9ab8-d9833c3bd790)?view\u003dfull"}],"modifications":{"uuid":"acdf5cd9-3812-4b51-970b-2b98e35c899f","created":1493461638913,"createdBy":"RAMEZ.GHAZZAOUI","lastEdited":1493461638913,"lastEditedBy":"RAMEZ.GHAZZAOUI","deprecated":false,"agentModifications":[{"uuid":"41ffa11c-a4c4-47a7-bea7-fd5ee8773202","created":1493461638915,"createdBy":"RAMEZ.GHAZZAOUI","lastEdited":1493461638915,"lastEditedBy":"RAMEZ.GHAZZAOUI","deprecated":false,"agentModificationProcess":"HYDROLYSIS","agentModificationRole":"PROTEOLYTIC AGENT","agentModificationType":"ENZYME","agentSubstance":{"uuid":"f3ad34da-4afd-43f8-9c5c-9fde4563e1c6","created":1.493461638914E12,"createdBy":"RAMEZ.GHAZZAOUI","lastEdited":1.493461638914E12,"lastEditedBy":"RAMEZ.GHAZZAOUI","deprecated":false,"refPname":"SUBTILISIN","refuuid":"f8ad4d44-b78c-48a5-9762-0e8ceb61514c","substanceClass":"reference","approvalID":"0ZP13EBC5Y","linkingID":"0ZP13EBC5Y","name":"SUBTILISIN","references":[],"access":[]},"amount":{"uuid":"4f7603ec-d9af-4a15-a0da-31afb2d29498","created":1493461638914,"createdBy":"RAMEZ.GHAZZAOUI","lastEdited":1493461638914,"lastEditedBy":"RAMEZ.GHAZZAOUI","deprecated":false,"nonNumericValue":"INCOMPLETE","references":[],"access":[]},"references":[],"access":[]}],"physicalModifications":[],"structuralModifications":[],"references":[],"access":[]},"notes":[{"uuid":"5c9c962f-63b5-4186-b193-2b3662a4e0ab","created":1493461638952,"createdBy":"RAMEZ.GHAZZAOUI","lastEdited":1493461638952,"lastEditedBy":"RAMEZ.GHAZZAOUI","deprecated":false,"note":"[Validation]WARNING:There is 1 substance with a similar sequence to subunit [1]:\nPerform similarity search on subunit [1]\n[02EMA6F96C]HYDROLYZED SERICIN (ENZYMATIC; 2500 MW)","references":["99300113-4ebe-4b33-aba0-8270af160e40"],"access":["admin"]},{"uuid":"dc9bae20-58f5-4c4d-9da6-24e2cb32ee33","created":1493461638952,"createdBy":"RAMEZ.GHAZZAOUI","lastEdited":1493461638952,"lastEditedBy":"RAMEZ.GHAZZAOUI","deprecated":false,"note":"[Validation]WARNING:Calculated weight [117254.80] is greater than 5% off of given weight [20000.00]","references":["99300113-4ebe-4b33-aba0-8270af160e40"],"access":["admin"]},{"uuid":"24376bb1-3af5-45a7-a1a1-f9bf06e00a2c","created":1493461638951,"createdBy":"RAMEZ.GHAZZAOUI","lastEdited":1493461638951,"lastEditedBy":"RAMEZ.GHAZZAOUI","deprecated":false,"note":"other proteases could be used","references":["b591a178-aff6-4e8b-982c-91dc4bc9e7a5"],"access":["protected"]},{"uuid":"d67b8400-3d92-45b9-905f-eeeb55c65fde","created":1493461638949,"createdBy":"RAMEZ.GHAZZAOUI","lastEdited":1493461638949,"lastEditedBy":"RAMEZ.GHAZZAOUI","deprecated":false,"note":"LEGACY XML:\u003cSUBSTANCE\u003e\n \u003cSUBSTANCE_ID/\u003e\n\u003cNAME_GROUP\u003e\n \u003cNAME/\u003e\n \u003cPUBLIC_DOMAIN/\u003e\n \u003cNAME_TYPE/\u003e\n \u003cLANGUAGE_ISOCODE/\u003e\n\u003cOFFICIAL_NAME_GROUP\u003e\n \u003cOFFICIAL_NAME_TYPE/\u003e\n \u003cOFFICIAL_NAME_STATUS/\u003e\n \u003cOFFICIAL_NAME_STATUS_CHANGE_DATE/\u003e\n\u003cOFFICIAL_NAME_JURISDICTION_GROUP\u003e\n \u003cOFFICIAL_NAME_JURISDICTION/\u003e\n \u003c/OFFICIAL_NAME_JURISDICTION_GROUP\u003e\n \u003cOFFICIAL_NAME_DOMAIN/\u003e\n \u003c/OFFICIAL_NAME_GROUP\u003e\n\u003cREFERENCE_SOURCE_GROUP\u003e\n \u003cPUBLIC_DOMAIN/\u003e\n \u003cREFERENCE_SOURCE_TYPE/\u003e\n \u003cREFERENCE_SOURCE_IDENTIFIER/\u003e\n \u003cREFERENCE_SOURCE_CITATION/\u003e\n \u003c/REFERENCE_SOURCE_GROUP\u003e\n \u003c/NAME_GROUP\u003e\n\u003cCODE_GROUP\u003e\n \u003cCODE/\u003e\n \u003cCODE_SYSTEM/\u003e\n \u003cCODE_SYSTEM_ID/\u003e\n \u003cCODE_STATUS/\u003e\n \u003cCODE_STATUS_CHANGE_DATE/\u003e\n\u003cREFERENCE_SOURCE_GROUP\u003e\n \u003cPUBLIC_DOMAIN/\u003e\n \u003cREFERENCE_SOURCE_TYPE/\u003e\n \u003cREFERENCE_SOURCE_IDENTIFIER/\u003e\n \u003cREFERENCE_SOURCE_CITATION/\u003e\n \u003c/REFERENCE_SOURCE_GROUP\u003e\n \u003c/CODE_GROUP\u003e\n\u003cREFERENCE_INFORMATION\u003e\n\u003cSUBSTANCE_RELATIONSHIP_GROUP\u003e\n \u003cRELATIONSHIP/\u003e\n \u003cTYPE_OF_INTERACTION/\u003e\n \u003cSUBSTANCE_ID/\u003e\n \u003cSUBSTANCE_NAME/\u003e\n \u003cRELATIONSHIP/\u003e\n \u003cAMOUNT_TYPE/\u003e\n\u003cAMOUNT\u003e\n \u003cAVERAGE/\u003e\n \u003cLOW_LIMIT/\u003e\n \u003cHIGH_LIMIT/\u003e\n \u003cUNIT/\u003e\n \u003cNON_NUMERIC_VALUE/\u003e\n \u003c/AMOUNT\u003e\n\u003cREFERENCE_SOURCE_GROUP\u003e\n \u003cPUBLIC_DOMAIN/\u003e\n \u003cREFERENCE_SOURCE_TYPE/\u003e\n \u003cREFERENCE_SOURCE_IDENTIFIER/\u003e\n \u003cREFERENCE_SOURCE_CITATION/\u003e\n \u003c/REFERENCE_SOURCE_GROUP\u003e\n \u003c/SUBSTANCE_RELATIONSHIP_GROUP\u003e\n\u003cGENE_GROUP\u003e\n \u003cGENE_SEQUENCE_ORIGIN\u003eBOMBYX MORI \u003c/GENE_SEQUENCE_ORIGIN\u003e\n \u003cGENE_ID\u003e693057\u003c/GENE_ID\u003e\n \u003cGENE_NAME\u003eSER1 SERICIN 1 (BOMBYX MORI) \u003c/GENE_NAME\u003e\n\u003cREFERENCE_SOURCE_GROUP\u003e\n \u003cPUBLIC_DOMAIN\u003eYES\u003c/PUBLIC_DOMAIN\u003e\n \u003cREFERENCE_SOURCE_TYPE\u003eGENE BANK\u003c/REFERENCE_SOURCE_TYPE\u003e\n \u003cREFERENCE_SOURCE_IDENTIFIER/\u003e\n \u003cREFERENCE_SOURCE_CITATION\u003ehttp://www.ncbi.nlm.nih.gov/gene/693057\u003c/REFERENCE_SOURCE_CITATION\u003e\n \u003c/REFERENCE_SOURCE_GROUP\u003e\n \u003c/GENE_GROUP\u003e\n\u003cSUBSTANCE_CLASSIFICATION\u003e\n \u003cDOMAIN/\u003e\n \u003cSUBSTANCE_TYPE\u003eSILK PROTEIN\u003c/SUBSTANCE_TYPE\u003e\n \u003cSUBSTANCE_SUBTYPE\u003eHYDROLYSED PROTEIN\u003c/SUBSTANCE_SUBTYPE\u003e\n\u003cREFERENCE_SOURCE_GROUP\u003e\n \u003cPUBLIC_DOMAIN/\u003e\n \u003cREFERENCE_SOURCE_TYPE/\u003e\n \u003cREFERENCE_SOURCE_IDENTIFIER/\u003e\n \u003cREFERENCE_SOURCE_CITATION/\u003e\n \u003c/REFERENCE_SOURCE_GROUP\u003e\n \u003c/SUBSTANCE_CLASSIFICATION\u003e\n\u003cTARGET_GROUP\u003e\n \u003cTARGET_ORGANISM/\u003e\n \u003cTARGET_TYPE/\u003e\n \u003cTARGET_NAME/\u003e\n \u003cTARGET_ID/\u003e\n \u003cTARGET_ID_SOURCE/\u003e\n \u003cINTERACTION_TYPE/\u003e\n\u003cREFERENCE_SOURCE_GROUP\u003e\n \u003cPUBLIC_DOMAIN\u003eYES\u003c/PUBLIC_DOMAIN\u003e\n \u003cREFERENCE_SOURCE_TYPE\u003eGENE\u003c/REFERENCE_SOURCE_TYPE\u003e\n \u003cREFERENCE_SOURCE_IDENTIFIER/\u003e\n \u003cREFERENCE_SOURCE_CITATION\u003ehttp://www.ncbi.nlm.nih.gov/gene/2321\u003c/REFERENCE_SOURCE_CITATION\u003e\n \u003c/REFERENCE_SOURCE_GROUP\u003e\n \u003c/TARGET_GROUP\u003e\n \u003cCOMMENTS/\u003e\n \u003c/REFERENCE_INFORMATION\u003e\n\u003cSINGLE_SUBSTANCE\u003e\n\u003cSTRUCTURE\u003e\n \u003cSTRUCTURAL_REPRESENTATION_TYPE/\u003e\n \u003cSTRUCTURAL_REPRESENTATION/\u003e\n \u003cSTEREOCHEMISTRY/\u003e\n \u003cOPTICAL_ACTIVITY/\u003e\n \u003cPUBLIC_DOMAIN/\u003e\n\u003cISOTOPE_GROUP\u003e\n \u003cNUCLIDE_ID/\u003e\n \u003cNUCLIDE_NAME/\u003e\n \u003cSUBSTITUTION_TYPE/\u003e\n \u003c/ISOTOPE_GROUP\u003e\n \u003c/STRUCTURE\u003e\n\u003cELEMENT_TYPE\u003e\n\u003cPROTEIN\u003e\n \u003cSEQUENCE_TYPE\u003eCOMPLETE\u003c/SEQUENCE_TYPE\u003e\n \u003cNUMBER_OF_SUBUNITS\u003e1\u003c/NUMBER_OF_SUBUNITS\u003e\n\u003cSUBUNIT_GROUP\u003e\n \u003cSUBUNIT\u003e1\u003c/SUBUNIT\u003e\n \u003cLENGTH\u003e1165\u003c/LENGTH\u003e\n \u003cSEQUENCE\u003eHHPGNRDTVEVKNRKYNAASSESSYLNKDNDSISAGAHRAKSVEQSQDKSKYTSGPEGVSYSGRSQNYKDSKQAYADYHSDPNGGSASAGQSRDSSLRERNVHYVSDGEAVAASSDARDENRSAQQNAQANWNADGSYGVSADRSGSASSRRRQANYYSDKDITAASKDDSRADSSRRSNAYYNRDSDGSESAGLSDRSASSSKNDNVFVYRTKDSIGGQAKSSRSSHSQESDAYYNSSPDGSYNAGTRDSSISNKKKASSTIYADKDQIRAANDRSSSKQLKQSSAQISSGPEGTSVSSKDRQYSNDKRSKSDAYVGRDGTVAYSNKDSEKTSRQSNTNYADQNSVRSDSAASDQTSKSYDRGYSDKNIVAHSSGSRGSQNQKSSSYRADKDGFSSSTNTEKSKFSSSNSVVETSDGASASRESSAEDTKSSNSNVQSDEKSASQSSSSRSSQESASYSSSSSSSTLSEDSSEVDIDLGNLGWWWNSDNKVQRAAGGATKSGASSSTQATTVSGADDSADSYTWWWNPRRSSSSSSSASSSSSGSNVGGSSQSSGSSTSGSNARGHLGTVSSTGSTSNTDSSSKSAGSRTSGGSSTYGYSSSHRGGSVSSTGSSSNTDSSTKNAGSSTSGGSSTYGYSSSHRGGSVSSTGSSSNTDSSTKSAGSSTSGGSSTYGYSSRHRGGRVSSTGSSSTTDASSNSVGSSTSGGSSTYGYSSNSRDGSVSSTGSSSNTDSNSNSAGSSTSGGSSTYGYSSNSRDGSVSSTGSSSNTDSNSNSAGSSTSGGSSTYGYSSNSRDGSVSSTGSSSNTDASTDLTGSSTSGGSSTYGYSSDSRDGSVSSTGSSSNTDASTDLAGSSTSGGSSTYGYSSDCGDGSVSSTGSSSNTDASTDLAGSSTSGGSSTYGYSSDSRDGSVSSTGSSSNTDASTDLAGSSTSGGSSTYGYSSNSRDGSVSSTGSSSNTDASTDLTGSSTSGGSSTYGYSSSNRDGSVLATGSSSNTDASTTEESTTSAGSSTEGYSSSSHDGSVTSTDGSSTSGGASSSSASTAKSDAASSEDGFWWWNRRKSGSGHKSATVQSSTTDKTSTDSASSTDSTSSTSGASTTTSGSSSTSGGSSTSDASSTSSSVSRSHHSGVNRLLHKPGQGKICLCFENIFDIPYHLRKNIGV\u003c/SEQUENCE\u003e\n \u003c/SUBUNIT_GROUP\u003e\n \u003cDISULFIDE_LINKAGE/\u003e\n\u003cOTHER_LINKAGE\u003e\n \u003cSITE/\u003e\n \u003cLINKAGE_TYPE/\u003e\n \u003c/OTHER_LINKAGE\u003e\n\u003cGLYCOSYLATION\u003e\n \u003cGLYCOSYLATION_TYPE/\u003e\n \u003cN_GLYCOSYLATION/\u003e\n \u003cO_GLYCOSYLATION/\u003e\n \u003cC_GLYCOSYLATION/\u003e\n \u003c/GLYCOSYLATION\u003e\n\u003cMODIFICATION_GROUP\u003e\n\u003cPHYSICAL_MODIFICATION_GROUP\u003e\n \u003cROLE/\u003e\n \u003cNUMBER_OF_PARAMETERS\u003e0\u003c/NUMBER_OF_PARAMETERS\u003e\n\u003cPARAMETER_GROUP\u003e\n \u003cPARAMETER/\u003e\n\u003cAMOUNT\u003e\n \u003cAVERAGE/\u003e\n \u003cLOW_LIMIT/\u003e\n \u003cHIGH_LIMIT/\u003e\n \u003cUNIT/\u003e\n \u003cNON_NUMERIC_VALUE/\u003e\n \u003c/AMOUNT\u003e\n \u003c/PARAMETER_GROUP\u003e\n \u003c/PHYSICAL_MODIFICATION_GROUP\u003e\n\u003cAGENT_MODIFICATION_GROUP\u003e\n \u003cAGENT_MODIFICATION_TYPE\u003eENZYME\u003c/AGENT_MODIFICATION_TYPE\u003e\n \u003cROLE\u003ePROTEOLYTIC AGENT\u003c/ROLE\u003e\n \u003cMODIFICATION_AGENT\u003eSUBTILISIN\u003c/MODIFICATION_AGENT\u003e\n \u003cMODIFICATION_AGENT_ID\u003e0ZP13EBC5Y\u003c/MODIFICATION_AGENT_ID\u003e\n \u003cMODIFICATION_PROCESS\u003eHYDROLYSIS\u003c/MODIFICATION_PROCESS\u003e\n \u003cAMOUNT_TYPE/\u003e\n\u003cAMOUNT\u003e\n \u003cAVERAGE/\u003e\n \u003cLOW_LIMIT/\u003e\n \u003cHIGH_LIMIT/\u003e\n \u003cUNIT/\u003e\n \u003cNON_NUMERIC_VALUE\u003eINCOMPLETE\u003c/NON_NUMERIC_VALUE\u003e\n \u003c/AMOUNT\u003e\n \u003c/AGENT_MODIFICATION_GROUP\u003e\n\u003cSTRUCTURAL_MODIFICATION_GROUP\u003e\n \u003cRESIDUE_MODIFIED/\u003e\n \u003cRESIDUE_SITE/\u003e\n \u003cNUMBER_OF_FRAGMENTS_MOIETIES/\u003e\n \u003cAMOUNT_TYPE/\u003e\n\u003cMOLECULAR_FRAGMENT_MOIETY\u003e\n \u003cSTRUCTURAL_MODIFICATION_TYPE/\u003e\n \u003cROLE/\u003e\n \u003cFRAGMENT_NUMBER/\u003e\n \u003cMOLECULAR_FRAGMENT_NAME/\u003e\n \u003cMOLECULAR_FRAGMENT_ID/\u003e\n \u003cMOLECULAR_FRAGMENT_INCHI/\u003e\n \u003cFRAGMENT_CONNECTIVTY/\u003e\n\u003cAMOUNT\u003e\n \u003cAVERAGE/\u003e\n \u003cLOW_LIMIT/\u003e\n \u003cHIGH_LIMIT/\u003e\n \u003cUNIT/\u003e\n \u003cNON_NUMERIC_VALUE/\u003e\n \u003c/AMOUNT\u003e\n \u003c/MOLECULAR_FRAGMENT_MOIETY\u003e\n \u003c/STRUCTURAL_MODIFICATION_GROUP\u003e\n \u003c/MODIFICATION_GROUP\u003e\n\u003cPROPERTY_GROUP\u003e\n \u003cPROPERTY_TYPE/\u003e\n \u003cPROPERTY/\u003e\n\u003cPROPERTY_DESCRIPTION\u003e\n \u003cSUBSTANCE_NAME/\u003e\n \u003cSUBSTANCE_ID/\u003e\n \u003cSUBSTANCE_ID/\u003e\n \u003cAMOUNT_TYPE/\u003e\n\u003cAMOUNT\u003e\n \u003cAVERAGE/\u003e\n \u003cLOW_LIMIT/\u003e\n \u003cHIGH_LIMIT/\u003e\n \u003cUNIT/\u003e\n \u003cNON_NUMERIC_VALUE/\u003e\n \u003c/AMOUNT\u003e\n \u003c/PROPERTY_DESCRIPTION\u003e\n \u003c/PROPERTY_GROUP\u003e\n\u003cMOLECULAR_WEIGHT\u003e\n \u003cMOLECULAR_WEIGHT_TYPE\u003eNOT DESCRIBED\u003c/MOLECULAR_WEIGHT_TYPE\u003e\n \u003cMOLECULAR_WEIGHT_METHOD/\u003e\n\u003cAMOUNT\u003e\n \u003cAVERAGE\u003e20000\u003c/AVERAGE\u003e\n \u003cLOW_LIMIT\u003e15000\u003c/LOW_LIMIT\u003e\n \u003cHIGH_LIMIT\u003e25000\u003c/HIGH_LIMIT\u003e\n \u003cUNIT\u003eAMU\u003c/UNIT\u003e\n \u003cNON_NUMERIC_VALUE/\u003e\n \u003c/AMOUNT\u003e\n \u003c/MOLECULAR_WEIGHT\u003e\n \u003cCOMMENTS/\u003e\n \u003cPUBLIC_DOMAIN/\u003e\n \u003c/PROTEIN\u003e\n \u003c/ELEMENT_TYPE\u003e\n\u003cREFERENCE_SOURCE_GROUP\u003e\n \u003cPUBLIC_DOMAIN/\u003e\n \u003cREFERENCE_SOURCE_TYPE/\u003e\n \u003cREFERENCE_SOURCE_IDENTIFIER/\u003e\n \u003cREFERENCE_SOURCE_CITATION/\u003e\n \u003c/REFERENCE_SOURCE_GROUP\u003e\n \u003c/SINGLE_SUBSTANCE\u003e\n \u003c/SUBSTANCE\u003e","references":["b591a178-aff6-4e8b-982c-91dc4bc9e7a5"],"access":["protected"]},{"uuid":"5b3e93f9-ab31-4f91-9326-18998c8f350b","created":1493461638948,"createdBy":"RAMEZ.GHAZZAOUI","lastEdited":1493461638948,"lastEditedBy":"RAMEZ.GHAZZAOUI","deprecated":false,"note":"Legacy Info:\u003cSRS_LEGACY_DATA\u003e\u003cCREATED_BY\u003eCALLAHANL\u003c/CREATED_BY\u003e\u003cCREATED_DATE\u003e2012-06-04 17:19:30.0\u003c/CREATED_DATE\u003e\u003cMODIFIED_BY\u003eArchana.Newatia\u003c/MODIFIED_BY\u003e\u003cMODIFIED_DATE\u003e2017-01-18 09:58:16.0\u003c/MODIFIED_DATE\u003e\u003cAPPROVED_BY\u003eSWITZERF\u003c/APPROVED_BY\u003e\u003cAPPROVED_DATE\u003e2012-06-04 17:34:47.0\u003c/APPROVED_DATE\u003e\u003c/SRS_LEGACY_DATA\u003e","references":["b591a178-aff6-4e8b-982c-91dc4bc9e7a5"],"access":["protected"]}],"properties":[{"uuid":"ba212fe1-ab17-4687-981b-bf506af5cddf","created":1493461638953,"createdBy":"RAMEZ.GHAZZAOUI","lastEdited":1493461638953,"lastEditedBy":"RAMEZ.GHAZZAOUI","deprecated":false,"name":"MOL_WEIGHT:NOT DESCRIBED","type":"amount","propertyType":"CHEMICAL","value":{"uuid":"f63dc585-4a98-4d50-afd0-ccf8fd55154c","created":1493461638953,"createdBy":"RAMEZ.GHAZZAOUI","lastEdited":1493461638953,"lastEditedBy":"RAMEZ.GHAZZAOUI","deprecated":false,"type":"NOT DESCRIBED","average":20000.0,"highLimit":25000.0,"lowLimit":15000.0,"units":"AMU","references":[],"access":[]},"defining":false,"parameters":[],"references":[],"access":[]}],"relationships":[{"uuid":"2f5c217b-12e5-4c44-8d3f-c1d7560c6c7a","created":1423861066001,"createdBy":"DAMMIKA.AMUGODA-KANK","lastEdited":1423861066001,"lastEditedBy":"DAMMIKA.AMUGODA-KANK","deprecated":false,"relatedSubstance":{"uuid":"58d82ed9-5658-44ec-8be6-cda1872a32a7","created":1.493461638954E12,"createdBy":"RAMEZ.GHAZZAOUI","lastEdited":1.493461638954E12,"lastEditedBy":"RAMEZ.GHAZZAOUI","deprecated":false,"refPname":"BOMBYX MORI WHOLE","refuuid":"878982d2-ec29-48ca-ae39-90c7554bbe0e","substanceClass":"reference","approvalID":"6MT58Z9E5P","linkingID":"6MT58Z9E5P","name":"BOMBYX MORI WHOLE","references":[],"access":[]},"originatorUuid":"2f5c217b-12e5-4c44-8d3f-c1d7560c6c7a","type":"PARENT ORGANISM-\u003ePART/FRACTION","references":["900024cb-f865-495e-88a8-17d0e80fbc12"],"access":["protected"]},{"uuid":"1ffd12d9-cea9-43c8-8ebf-4e8921a6151b","created":1534796427710,"createdBy":"YULIA.BORODINA","lastEdited":1534796427710,"lastEditedBy":"YULIA.BORODINA","deprecated":false,"relatedSubstance":{"uuid":"5a19a990-4287-4612-ac54-6025a0b0044a","created":1.534796427708E12,"createdBy":"YULIA.BORODINA","lastEdited":1.534796427708E12,"lastEditedBy":"YULIA.BORODINA","deprecated":false,"refPname":"SERICIN 1","refuuid":"8b7b4bb3-d8d2-48d6-898e-fdb3c9455131","substanceClass":"reference","approvalID":"N6466G03F7","linkingID":"N6466G03F7","name":"SERICIN 1","references":[],"access":[]},"originatorUuid":"1ffd12d9-cea9-43c8-8ebf-4e8921a6151b","type":"STARTING MATERIAL-\u003eINGREDIENT","references":["ce671f8a-af49-4ca7-bd2b-3646c5cfe028"],"access":[]}],"references":[{"uuid":"99300113-4ebe-4b33-aba0-8270af160e40","created":1493461638969,"createdBy":"RAMEZ.GHAZZAOUI","lastEdited":1493461638969,"lastEditedBy":"RAMEZ.GHAZZAOUI","deprecated":false,"citation":"GSRS System-generated Validation messages","docType":"VALIDATION_MESSAGE","documentDate":1493461638821,"publicDomain":false,"tags":[],"access":["admin"],"_self":"/ginas/app/api/v1/references(99300113-4ebe-4b33-aba0-8270af160e40)?view\u003dfull"},{"uuid":"6e908e91-c2ff-4f39-af13-758382f0cb75","created":1493461638969,"createdBy":"RAMEZ.GHAZZAOUI","lastEdited":1493461638969,"lastEditedBy":"RAMEZ.GHAZZAOUI","deprecated":false,"citation":"jsonDump-2017-04-28--all-but-first-500-records.txt.zip","docType":"BATCH_IMPORT","documentDate":1493461632121,"publicDomain":false,"tags":[],"id":"773bab31c7fb3258757b","access":[],"_self":"/ginas/app/api/v1/references(6e908e91-c2ff-4f39-af13-758382f0cb75)?view\u003dfull"},{"uuid":"f2bb5d04-d9cd-4c6a-8c88-a7ab71c99189","created":1493461638968,"createdBy":"RAMEZ.GHAZZAOUI","lastEdited":1493461638968,"lastEditedBy":"RAMEZ.GHAZZAOUI","deprecated":false,"citation":"company communication","docType":"SRS","publicDomain":true,"tags":["NOMEN"],"access":[],"_self":"/ginas/app/api/v1/references(f2bb5d04-d9cd-4c6a-8c88-a7ab71c99189)?view\u003dfull"},{"uuid":"b591a178-aff6-4e8b-982c-91dc4bc9e7a5","created":1493461638967,"createdBy":"RAMEZ.GHAZZAOUI","lastEdited":1493461638967,"lastEditedBy":"RAMEZ.GHAZZAOUI","deprecated":false,"citation":"SRS import [4E18KMU551]","docType":"SRS","documentDate":1493391661000,"publicDomain":true,"tags":["NOMEN"],"url":"http://fdasis.nlm.nih.gov/srs/srsdirect.jsp?regno\u003d4E18KMU551","access":[],"_self":"/ginas/app/api/v1/references(b591a178-aff6-4e8b-982c-91dc4bc9e7a5)?view\u003dfull"},{"uuid":"900024cb-f865-495e-88a8-17d0e80fbc12","created":1493461638967,"createdBy":"RAMEZ.GHAZZAOUI","lastEdited":1493461638967,"lastEditedBy":"RAMEZ.GHAZZAOUI","deprecated":false,"citation":"0733904AA-\u003e[]-\u003e0600088AA","docType":"BDNUM","publicDomain":false,"tags":["NOMEN"],"access":["protected"],"_self":"/ginas/app/api/v1/references(900024cb-f865-495e-88a8-17d0e80fbc12)?view\u003dfull"},{"uuid":"ce671f8a-af49-4ca7-bd2b-3646c5cfe028","created":1493461638966,"createdBy":"RAMEZ.GHAZZAOUI","lastEdited":1493461638966,"lastEditedBy":"RAMEZ.GHAZZAOUI","deprecated":false,"citation":"FDA_SRS","docType":"SRS","publicDomain":true,"tags":["NOMEN"],"access":[],"_self":"/ginas/app/api/v1/references(ce671f8a-af49-4ca7-bd2b-3646c5cfe028)?view\u003dfull"},{"uuid":"7e443e03-d013-4a3c-b594-a60de39c9af1","created":1493461638966,"createdBy":"RAMEZ.GHAZZAOUI","lastEdited":1493461638966,"lastEditedBy":"RAMEZ.GHAZZAOUI","deprecated":false,"citation":"SETAKOL SPAI COMMUNICATION","docType":"SRS","publicDomain":true,"tags":["NOMEN"],"access":[],"_self":"/ginas/app/api/v1/references(7e443e03-d013-4a3c-b594-a60de39c9af1)?view\u003dfull"},{"uuid":"fad8284e-2cb1-4ea4-bea1-7cba49bab42c","created":1493461638965,"createdBy":"RAMEZ.GHAZZAOUI","lastEdited":1493461638965,"lastEditedBy":"RAMEZ.GHAZZAOUI","deprecated":false,"citation":"MANUFACTURER PRODUCT DESCRIPTION","docType":"MANUFACTURER PRODUCT DESCRIPTION","publicDomain":false,"tags":["NOMEN"],"access":["protected"],"_self":"/ginas/app/api/v1/references(fad8284e-2cb1-4ea4-bea1-7cba49bab42c)?view\u003dfull"},{"uuid":"4d512bd5-1ec6-4fbd-a54e-60304dda4216","created":1493461638965,"createdBy":"RAMEZ.GHAZZAOUI","lastEdited":1493461638965,"lastEditedBy":"RAMEZ.GHAZZAOUI","deprecated":false,"citation":"MANUFACTURER","docType":"SRS","publicDomain":true,"tags":["NOMEN"],"access":[],"_self":"/ginas/app/api/v1/references(4d512bd5-1ec6-4fbd-a54e-60304dda4216)?view\u003dfull"},{"uuid":"c345aeaa-f339-4e9d-9366-14fd2073bb4f","created":1493461638964,"createdBy":"RAMEZ.GHAZZAOUI","lastEdited":1493461638964,"lastEditedBy":"RAMEZ.GHAZZAOUI","deprecated":false,"citation":"spai \u0026 sons email","docType":"MANUFACTURER PRODUCT DESCRIPTION","publicDomain":false,"tags":["NOMEN"],"access":["protected"],"_self":"/ginas/app/api/v1/references(c345aeaa-f339-4e9d-9366-14fd2073bb4f)?view\u003dfull"},{"uuid":"9b87d6c2-88a4-444c-82f7-64e791117e8e","created":1493461638964,"createdBy":"RAMEZ.GHAZZAOUI","lastEdited":1493461638964,"lastEditedBy":"RAMEZ.GHAZZAOUI","deprecated":false,"citation":"0733904AA","docType":"BDNUM","publicDomain":false,"tags":["NOMEN"],"access":["protected"],"_self":"/ginas/app/api/v1/references(9b87d6c2-88a4-444c-82f7-64e791117e8e)?view\u003dfull"},{"uuid":"13cd281c-3216-4719-8705-2fa0866bb4dc","created":1493461638963,"createdBy":"RAMEZ.GHAZZAOUI","lastEdited":1493461638963,"lastEditedBy":"RAMEZ.GHAZZAOUI","deprecated":false,"citation":"setakol","docType":"SRS","publicDomain":true,"tags":["NOMEN","PUBLIC_DOMAIN_RELEASE","AUTO_SELECTED"],"access":[],"_self":"/ginas/app/api/v1/references(13cd281c-3216-4719-8705-2fa0866bb4dc)?view\u003dfull"}],"approvalID":"4E18KMU551","tags":[],"protein":{"uuid":"929d4b13-f5fb-4d27-a059-920fd84d8431","created":1493461638916,"createdBy":"RAMEZ.GHAZZAOUI","lastEdited":1493461638916,"lastEditedBy":"RAMEZ.GHAZZAOUI","deprecated":false,"sequenceType":"COMPLETE","glycosylation":{"uuid":"48718b19-cbc8-4440-bc04-aae0be1c485b","created":1493461638913,"createdBy":"RAMEZ.GHAZZAOUI","lastEdited":1493461638913,"lastEditedBy":"RAMEZ.GHAZZAOUI","deprecated":false,"CGlycosylationSites":[],"NGlycosylationSites":[],"OGlycosylationSites":[],"references":[],"access":[]},"subunits":[{"uuid":"ebaf6834-4432-4fb2-aeac-223aa74655ef","created":1493461638916,"createdBy":"RAMEZ.GHAZZAOUI","lastEdited":1493461638916,"lastEditedBy":"RAMEZ.GHAZZAOUI","deprecated":false,"sequence":"HHPGNRDTVEVKNRKYNAASSESSYLNKDNDSISAGAHRAKSVEQSQDKSKYTSGPEGVSYSGRSQNYKDSKQAYADYHSDPNGGSASAGQSRDSSLRERNVHYVSDGEAVAASSDARDENRSAQQNAQANWNADGSYGVSADRSGSASSRRRQANYYSDKDITAASKDDSRADSSRRSNAYYNRDSDGSESAGLSDRSASSSKNDNVFVYRTKDSIGGQAKSSRSSHSQESDAYYNSSPDGSYNAGTRDSSISNKKKASSTIYADKDQIRAANDRSSSKQLKQSSAQISSGPEGTSVSSKDRQYSNDKRSKSDAYVGRDGTVAYSNKDSEKTSRQSNTNYADQNSVRSDSAASDQTSKSYDRGYSDKNIVAHSSGSRGSQNQKSSSYRADKDGFSSSTNTEKSKFSSSNSVVETSDGASASRESSAEDTKSSNSNVQSDEKSASQSSSSRSSQESASYSSSSSSSTLSEDSSEVDIDLGNLGWWWNSDNKVQRAAGGATKSGASSSTQATTVSGADDSADSYTWWWNPRRSSSSSSSASSSSSGSNVGGSSQSSGSSTSGSNARGHLGTVSSTGSTSNTDSSSKSAGSRTSGGSSTYGYSSSHRGGSVSSTGSSSNTDSSTKNAGSSTSGGSSTYGYSSSHRGGSVSSTGSSSNTDSSTKSAGSSTSGGSSTYGYSSRHRGGRVSSTGSSSTTDASSNSVGSSTSGGSSTYGYSSNSRDGSVSSTGSSSNTDSNSNSAGSSTSGGSSTYGYSSNSRDGSVSSTGSSSNTDSNSNSAGSSTSGGSSTYGYSSNSRDGSVSSTGSSSNTDASTDLTGSSTSGGSSTYGYSSDSRDGSVSSTGSSSNTDASTDLAGSSTSGGSSTYGYSSDCGDGSVSSTGSSSNTDASTDLAGSSTSGGSSTYGYSSDSRDGSVSSTGSSSNTDASTDLAGSSTSGGSSTYGYSSNSRDGSVSSTGSSSNTDASTDLTGSSTSGGSSTYGYSSSNRDGSVLATGSSSNTDASTTEESTTSAGSSTEGYSSSSHDGSVTSTDGSSTSGGASSSSASTAKSDAASSEDGFWWWNRRKSGSGHKSATVQSSTTDKTSTDSASSTDSTSSTSGASTTTSGSSSTSGGSSTSDASSTSSSVSRSHHSGVNRLLHKPGQGKICLCFENIFDIPYHLRKNIGV","subunitIndex":1,"length":1165.0,"references":[],"access":[]}],"otherLinks":[],"disulfideLinks":[],"references":["b591a178-aff6-4e8b-982c-91dc4bc9e7a5","f2bb5d04-d9cd-4c6a-8c88-a7ab71c99189"],"access":[],"proteinSubType":""},"_approvalIDDisplay":"4E18KMU551","_name":"HYDROLYZED SERICIN (ENZYMATIC; 20000 MW)","access":[],"_self":"/ginas/app/api/v1/substances(a8187a64-2039-47f4-91b4-b375ab226047)?view\u003dfull"}

>  <DESC_PART1>
<SUBSTANCE>
 <SUBSTANCE_ID/>
<NAME_GROUP>
 <NAME/>
 <PUBLIC_DOMAIN/>
 <NAME_TYPE/>
 <LANGUAGE_ISOCODE/>
<OFFICIAL_NAME_GROUP>
 <OFFICIAL_NAME_TYPE/>
 <OFFICIAL_NAME_STATUS/>
 <OFFICIAL_NAME_STATUS_CHANGE_DATE/>
<OFFICIAL_NAME_JURISDICTION_GROUP>
 <OFFICIAL_NAME_JURISDICTION/>
 </OFFICIAL_NAME_JURISDICTION_GROUP>
 <OFFICIAL_NAME_DOMAIN/>
 </OFFICIAL_NAME_GROUP>
<REFERENCE_SOURCE_GROUP>
 <PUBLIC_DOMAIN/>
 <REFERENCE_SOURCE_TYPE/>
 <REFERENCE_SOURCE_IDENTIFIER/>
 <REFERENCE_SOURCE_CITATION/>
 </REFERENCE_SOURCE_GROUP>
 </NAME_GROUP>
<CODE_GROUP>
 <CODE/>
 <CODE_SYSTEM/>
 <CODE_SYSTEM_ID/>
 <CODE_STATUS/>
 <CODE_STATUS_CHANGE_DATE/>
<REFERENCE_SOURCE_GROUP>
 <PUBLIC_DOMAIN/>
 <REFERENCE_SOURCE_TYPE/>
 <REFERENCE_SOURCE_IDENTIFIER/>
 <REFERENCE_SOURCE_CITATION/>
 </REFERENCE_SOURCE_GROUP>
 </CODE_GROUP>
<REFERENCE_INFORMATION>
<SUBSTANCE_RELATIONSHIP_GROUP>
 <RELATIONSHIP/>
 <TYPE_OF_INTERACTION/>
 <SUBSTANCE_ID/>
 <SUBSTANCE_NAME/>
 <RELATIONSHIP/>
 <AMOUNT_TYPE/>
<AMOUNT>
 <AVERAGE/>
 <LOW_LIMIT/>
 <HIGH_LIMIT/>
 <UNIT/>
 <NON_NUMERIC_VALUE/>
 </AMOUNT>
<REFERENCE_SOURCE_GROUP>
 <PUBLIC_DOMAIN/>
 <REFERENCE_SOURCE_TYPE/>
 <REFERENCE_SOURCE_IDENTIFIER/>
 <REFERENCE_SOURCE_CITATION/>
 </REFERENCE_SOURCE_GROUP>
 </SUBSTANCE_RELATIONSHIP_GROUP>
<GENE_GROUP>
 <GENE_SEQUENCE_ORIGIN>BOMBYX MORI </GENE_SEQUENCE_ORIGIN>
 <GENE_ID>693057</GENE_ID>
 <GENE_NAME>SER1 SERICIN 1 (BOMBYX MORI) </GENE_NAME>
<REFERENCE_SOURCE_GROUP>
 <PUBLIC_DOMAIN>YES</PUBLIC_DOMAIN>
 <REFERENCE_SOURCE_TYPE>GENE BANK</REFERENCE_SOURCE_TYPE>
 <REFERENCE_SOURCE_IDENTIFIER/>
 <REFERENCE_SOURCE_CITATION>http://www.ncbi.nlm.nih.gov/gene/693057</REFERENCE_SOURCE_CITATION>
 </REFERENCE_SOURCE_GROUP>
 </GENE_GROUP>
<SUBSTANCE_CLASSIFICATION>
 <DOMAIN/>
 <SUBSTANCE_TYPE>SILK PROTEIN</SUBSTANCE_TYPE>
 <SUBSTANCE_SUBTYPE>HYDROLYSED PROTEIN</SUBSTANCE_SUBTYPE>
<REFERENCE_SOURCE_GROUP>
 <PUBLIC_DOMAIN/>
 <REFERENCE_SOURCE_TYPE/>
 <REFERENCE_SOURCE_IDENTIFIER/>
 <REFERENCE_SOURCE_CITATION/>
 </REFERENCE_SOURCE_GROUP>
 </SUBSTANCE_CLASSIFICATION>
<TARGET_GROUP>
 <TARGET_ORGANISM/>
 <TARGET_TYPE/>
 <TARGET_NAME/>
 <TARGET_ID/>
 <TARGET_ID_SOURCE/>
 <INTERACTION_TYPE/>
<REFERENCE_SOURCE_GROUP>
 <PUBLIC_DOMAIN>YES</PUBLIC_DOMAIN>
 <REFERENCE_SOURCE_TYPE>GENE</REFERENCE_SOURCE_TYPE>
 <REFERENCE_SOURCE_IDENTIFIER/>
 <REFERENCE_SOURCE_CITATION>http://www.ncbi.nlm.nih.gov/gene/2321</REFERENCE_SOURCE_CITATION>
 </REFERENCE_SOURCE_GROUP>
 </TARGET_GROUP>
 <COMMENTS/>
 </REFERENCE_INFORMATION>
<SINGLE_SUBSTANCE>
<STRUCTURE>
 <STRUCTURAL_REPRESENTATION_TYPE/>
 <STRUCTURAL_REPRESENTATION/>
 <STEREOCHEMISTRY/>
 <OPTICAL_ACTIVITY/>
 <PUBLIC_DOMAIN/>
<ISOTOPE_GROUP>
 <NUCLIDE_ID/>
 <NUCLIDE_NAME/>
 <SUBSTITUTION_TYPE/>
 </ISOTOPE_GROUP>
 </STRUCTURE>
<ELEMENT_TYPE>
<PROTEIN>
 <SEQUENCE_TYPE>COMPLETE</SEQUENCE_TYPE>
 <NUMBER_OF_SUBUNITS>1</NUMBER_OF_SUBUNITS>
<SUBUNIT_GROUP>
 <SUBUNIT>1</SUBUNIT>
 <LENGTH>1165</LENGTH>
 <SEQUENCE>HHPGNRDTVEVKNRKYNAASSESSYLNKDNDSISAGAHRAKSVEQSQDKSKYTSGPEGVSYSGRSQNYKDSKQAYADYHSDPNGGSASAGQSRDSSLRERNVHYVSDGEAVAASSDARDENRSAQQNAQANWNADGSYGVSADRSGSASSRRRQANYYSDKDITAASKDDSRADSSRRSNAYYNRDSDGSESAGLSDRSASSSKNDNVFVYRTKDSIGGQAKSSRSSHSQESDAYYNSSPDGSYNAGTRDSSISNKKKASSTIYADKDQIRAANDRSSSKQLKQSSAQISSGPEGTSVSSKDRQYSNDKRSKSDAYVGRDGTVAYSNKDSEKTSRQSNTNYADQNSVRSDSAASDQTSKSYDRGYSDKNIVAHSSGSRGSQNQKSSSYRADKDGFSSSTNTEKSKFSSSNSVVETSDGASASRESSAEDTKSSNSNVQSDEKSASQSSSSRSSQESASYSSSSSSSTLSEDSSEVDIDLGNLGWWWNSDNKVQRAAGGATKSGASSSTQATTVSGADDSADSYTWWWNPRRSSSSSSSASSSSSGSNVGGSSQSSGSSTSGSNARGHLGTVSSTGSTSNTDSSSKSAGSRTSGGSSTYGYSSSHRGGSVSSTGSSSNTDSSTKNAGSSTSGGSSTYGYSSSHRGGSVSSTGSSSNTDSSTKSAGSSTSGGSSTYGYSSRHRGGRVSSTGSSSTTDASSNSVGSSTSGGSSTYGYSSNSRDGSVSSTGSSSNTDSNSNSAGSSTSGGSSTYGYSSNSRDGSVSSTGSSSNTDSNSNSAGSSTSGGSSTYGYSSNSRDGSVSSTGSSSNTDASTDLTGSSTSGGSSTYGYSSDSRDGSVSSTGSSSNTDASTDLAGSSTSGGSSTYGYSSDCGDGSVSSTGSSSNTDASTDLAGSSTSGGSSTYGYSSDSRDGSVSSTGSSSNTDASTDLAGSSTSGGSSTYGYSSNSRDGSVSSTGSSSNTDASTDLTGSSTSGGSSTYGYSSSNRDGSVLATGSSSNTDASTTEESTTSAGSSTEGYSSSSHDGSVTSTDGSSTSGGASSSSASTAKSDAASSEDGFWWWNRRKSGSGHKSATVQSSTTDKTSTDSASSTDSTSSTSGASTTTSGSSSTSGGSSTSDASSTSSSVSRSHHSGVNRLLHKPGQGKICLCFENIFDIPYHLRKNIGV</SEQUENCE>
 </SUBUNIT_GROUP>
 <DISULFIDE_LINKAGE/>
<OTHER_LINKAGE>
 <SITE/>
 <LINKAGE_TYPE/>
 </OTHER_LINKAGE>
<GLYCOSYLATION>
 <GLYCOSYLATION_TYPE/>
 <N_GLYCOSYLATION/>
 <O_GLYCOSYLATION/>
 <C_GLYCOSYLATION/>
 </GLYCOSYLATION>
<MODIFICATION_GROUP>
<PHYSICAL_MODIFICATION_GROUP>
 <ROLE/>
 <NUMBER_OF_PARAMETERS>0</NUMBER_OF_PARAMETERS>
<PARAMETER_GROUP>
 <PARAMETER/>
<AMOUNT>
 <AVERAGE/>
 <LOW_LIMIT/>
 <HIGH_LIMIT/>
 <UNIT/>
 <NON_NUMERIC_VALUE/>
 </AMOUNT>
 </PARAMETER_GROUP>
 </PHYSICAL_MODIFICATION_GROUP>
<AGENT_MODIFICATION_GROUP>
 <AGENT_MODIFICATION_TYPE>ENZYME</AGENT_MODIFICATION_TYPE>
 <ROLE>PROTEOLYTIC AGENT</ROLE>
 <MODIFICATION_AGENT>SUBTILISIN</MODIFICATION_AGENT>
 <MODIFICATION_AGENT_ID>0ZP13EBC5Y</MODIFICATION_AGENT_ID>
 <MODIFICATION_PROCESS>HYDROLYSIS</MODIFICATION_PROCESS>
 <AMOUNT_TYPE/>
<AMOUNT>
 <AVERAGE/>
 <LOW_LIMIT/>
 <HIGH_LIMIT/>
 <UNIT/>
 <NON_NUMERIC_VALUE>INCOMPLETE</NON_NUMERIC_VALUE>
 </AMOUNT>
 </AGENT_MODIFICATION_GROUP>
<STRUCTURAL_MODIFICATION_GROUP>
 <RESIDUE_MODIFIED/>
 <RESIDUE_SITE/>
 <NUMBER_OF_FRAGMENTS_MOIETIES/>
 <AMOUNT_TYPE/>
<MOLECULAR_FRAGMENT_MOIETY>
 <STRUCTURAL_MODIFICATION_TYPE/>
 <ROLE/>
 <FRAGMENT_NUMBER/>
 <MOLECULAR_FRAGMENT_NAME/>
 <MOLECULAR_FRAGMENT_ID/>
 <MOLECULAR_FRAGMENT_INCHI/>
 <FRAGMENT_CONNECTIVTY/>
<AMOUNT>
 <AVERAGE/>
 <LOW_LIMIT/>
 <HIGH_LIMIT/>
 <UNIT/>
 <NON_NUMERIC_VALUE/>
 </AMOUNT>
 </MOLECULAR_FRAGMENT_MOIETY>
 </STRUCTURAL_MODIFICATION_GROUP>
 </MODIFICATION_GROUP>
<PROPERTY_GROUP>
 <PROPERTY_TYPE/>
 <PROPERTY/>
<PROPERTY_DESCRIPTION>
 <SUBSTANCE_NAME/>
 <SUBSTANCE_ID/>
 <SUBSTANCE_ID/>
 <AMOUNT_TYPE/>
<AMOUNT>
 <AVERAGE/>
 <LOW_LIMIT/>
 <HIGH_LIMIT/>
 <UNIT/>
 <NON_NUMERIC_VALUE/>
 </AMOUNT>
 </PROPERTY_DESCRIPTION>
 </PROPERTY_GROUP>
<MOLECULAR_WEIGHT>
 <MOLECULAR_WEIGHT_TYPE>NOT DESCRIBED</MOLECULAR_WEIGHT_TYPE>
 <MOLECULAR_WEIGHT_METHOD/>
<AMOUNT>
 <AVERAGE>20000</AVERAGE>
 <LOW_LIMIT>15000</LOW_LIMIT>
 <HIGH_LIMIT>25000</HIGH_LIMIT>
 <UNIT>AMU</UNIT>
 <NON_NUMERIC_VALUE/>
 </AMOUNT>
 </MOLECULAR_WEIGHT>
 <COMMENTS/>
 <PUBLIC_DOMAIN/>
 </PROTEIN>
 </ELEMENT_TYPE>
<REFERENCE_SOURCE_GROUP>
 <PUBLIC_DOMAIN/>
 <REFERENCE_SOURCE_TYPE/>
 <REFERENCE_SOURCE_IDENTIFIER/>
 <REFERENCE_SOURCE_CITATION/>
 </REFERENCE_SOURCE_GROUP>
 </SINGLE_SUBSTANCE>
 </SUBSTANCE>

>  <STRUCTURE_ID>


>  <UNII>
4E18KMU551

>  <SUBSTANCE_ID>
a8187a64-2039-47f4-91b4-b375ab226047

>  <COMMENTS>
other proteases could be used

>  <REF_INFO_PART1>


$$$$