>  <SUBSTANCE_ID>
179961

>  <UNII>
VQ723R7O8R

>  <DESC_PART1>
<PROTEIN>
 <SEQUENCE_TYPE>COMPLETE</SEQUENCE_TYPE>
 <NUMBER_OF_SUBUNITS>1</NUMBER_OF_SUBUNITS>
 <SUBUNIT_GROUP>
 <SUBUNIT>1</SUBUNIT>
 <LENGTH>1444</LENGTH>
 <SEQUENCE>ATRRYYLGAVELSWDYMQSDLGELPVDARFPPRVPKSFPFNTSVVYKKTLFVEFTDHLFNIAKPRPPWMGLLGPTIQAEVYDTVVITLKNMASHPVSLHAVGVSYWKASEGAEYDDQTSQREKEDDKVFPGGSHTYVWQVLKENGPMASDPLCLTYSYLSHVDLVKDLNSGLIGALLVCREGSLAKEKTQTLHKFILLFAVFDEGKSWHSETKNSLMQDRDAASARAWPKMHTVNGYVNRSLPGLIGCHRKSVYWHVIGMGTTPEVHSIFLEGHTFLVRNHRQASLEISPITFLTAQTLLMDLGQFLLFCHISSHQHDGMEAYVKVDSCPEEPQLRMKNNEEAEDYDDDLTDSEMDVVRFDDDNSPSFIQIRSVAKKHPKTWVHYIAAEEEDWDYAPLVLAPDDRSYKSQYLNNGPQRIGRKYKKVRFMAYTDETFKTREAIQHESGILGPLLYGEVGDTLLIIFKNQASRPYNIYPHGITDVRPLYSRRLPKGVKHLKDFPILPGEIFKYKWTVTVEDGPTKSDPRCLTRYYSSFVNMERDLASGLIGPLLICYKESVDQRGNQIMSDKRNVILFSVFDENRSWYLTENIQRFLPNPAGVQLEDPEFQASNIMHSINGYVFDSLQLSVCLHEVAYWYILSIGAQTDFLSVFFSGYTFKHKMVYEDTLTLFPFSGETVFMSMENPGLWILGCHNSDFRNRGMTALLKVSSCDKNTGDYYEDSYEDISAYLLSKNNAIEPRSFSQNSRHPSTRQKQFNATTIPENTTLQSDQEEIDYDDTISVEMKKEDFDIYDEDENQSPRSFQKKTRHYFIAAVERLWDYGMSSSPHVLRNRAQSGSVPQFKKVVFQEFTDGSFTQPLYRGELNEHLGLLGPYIRAEVEDNIMVTFRNQASRPYSFYSSLISYEEDQRQGAEPRKNFVKPNETKTYFWKVQHHMAPTKDEFDCKAWAYFSDVDLEKDVHSGLIGPLLVCHTNTLNPAHGRQVTVQEFALFFTIFDETKSWYFTENMERNCRAPCNIQMEDPTFKENYRFHAINGYIMDTLPGLVMAQDQRIRWYLLSMGSNENIHSIHFSGHVFTVRKKEEYKMALYNLYPGVFETVEMLPSKAGIWRVECLIGEHLHAGMSTLFLVYSNKCQTPLGMASGHIRDFQITASGQYGQWAPKLARLHYSGSINAWSTKEPFSWIKVDLLAPMIIHGIKTQGARQKFSSLYISQFIIMYSLDGKKWQTYRGNSTGTLMVFFGNVDSSGIKHNIFNPPIIARYIRLHPTHYSIRSTLRMELMGCDLNSCSMPLGMESKAISDAQITASSYFTNMFATWSPSKARLHLQGRSNAWRPQVNNPKEWLQVDFQKTMKVTGVTTQGVKSLLTSMYVKEFLISSSQDGHQWTLFFQNGKVKVFQGNQDSFTPVVNSLDPPLLTRYLRIHPQSWVHQIALRMEVLGCEAQDLY</SEQUENCE>
 </SUBUNIT_GROUP>
 <DISULFIDE_LINKAGE>1_153-1_179; 1_248-1_329; 1_528-1_554; 1_630-1_711; 1_944-1_970; 1_1011-1_1015; 1_1133-1_1281; 1_1286-1_1438</DISULFIDE_LINKAGE>
 <GLYCOSYLATION>
 <GLYCOSYLATION_TYPE></GLYCOSYLATION_TYPE>
 <N_GLYCOSYLATION>1_41; 1_239; 1_757; 1_764; 1_922; 1_1230</N_GLYCOSYLATION>
 <O_GLYCOSYLATION>1_743</O_GLYCOSYLATION>
 <C_GLYCOSYLATION></C_GLYCOSYLATION>
 </GLYCOSYLATION>
 <MODIFICATION_GROUP>
 <PHYSICAL_MODIFICATION_GROUP>
 <ROLE />
 <NUMBER_OF_PARAMETERS>0</NUMBER_OF_PARAMETERS>
 <PARAMETER_GROUP>
 <PARAMETER />
 <AMOUNT>
 <AVERAGE />
 <LOW_LIMIT />
 <HIGH_LIMIT />
 <UNIT />
 <NON_NUMERIC_VALUE />
 </AMOUNT>
 </PARAMETER_GROUP>
 </PHYSICAL_MODIFICATION_GROUP>
 <AGENT_MODIFICATION_GROUP>
 <AGENT_MODIFICATION_TYPE />
 <ROLE />
 <MODIFICATION_AGENT />
 <MODIFICATION_AGENT_ID />
 <MODIFICATION_PROCESS />
 <AMOUNT_TYPE />
 <AMOUNT>
 <AVERAGE />
 <LOW_LIMIT />
 <HIGH_LIMIT />
 <UNIT />
 <NON_NUMERIC_VALUE />
 </AMOUNT>
 </AGENT_MODIFICATION_GROUP>
 <STRUCTURAL_MODIFICATION_GROUP>
 <RESIDUE_MODIFIED>Tyr</RESIDUE_MODIFIED>
 <RESIDUE_SITE>1_346; 1_718; 1_719; 1_723; 1_776; 1_792</RESIDUE_SITE>
 <NUMBER_OF_FRAGMENTS_MOIETIES />
 <AMOUNT_TYPE />
 <MOLECULAR_FRAGMENT_MOIETY>
 <STRUCTURAL_MODIFICATION_TYPE />
 <ROLE />
 <FRAGMENT_NUMBER />
 <MOLECULAR_FRAGMENT_NAME />
 <MOLECULAR_FRAGMENT_ID />
 <MOLECULAR_FRAGMENT_INCHI>InChI=1S/C9H11NO6S/c10-8(9(11)12)5-6-1-3-7(4-2-6)16-17(13,14)15/h1-4,8H,5,10H2,(H,11,12)(H,13,14,15)/t8-/m0/s1</MOLECULAR_FRAGMENT_INCHI>
 <MOLFILE><![CDATA[
 ACCLDraw07181411412D

 17 17 0 0 1 0 0 0 0 0999 V2000
 6.9778 -4.7214 0.0000 C 0 0 0 0 0 0 0 0 0 0 0 0
 9.0201 -4.7208 0.0000 C 0 0 0 0 0 0 0 0 0 0 0 0
 8.0009 -4.1311 0.0000 C 0 0 0 0 0 0 0 0 0 0 0 0
 9.0201 -5.9023 0.0000 C 0 0 0 0 0 0 0 0 0 0 0 0
 6.9778 -5.9076 0.0000 C 0 0 0 0 0 0 0 0 0 0 0 0
 8.0034 -6.4918 0.0000 C 0 0 0 0 0 0 0 0 0 0 0 0
 10.0430 -6.4928 0.0000C 0 0 0 0 0 0 0 0 0 0 0 0
 11.0658 -5.9023 0.0000 C 0 0 1 0 0 0 0 0 0 0 0 0
 12.0887 -6.4928 0.0000 C 0 0 0 0 0 0 0 0 0 0 0 0
 11.0658 -4.7212 0.0000 N 0 0 0 0 0 0 0 0 0 0 0 0
 13.1116 -5.9023 0.0000 O 0 0 0 0 0 0 0 0 0 0 0 0
 12.0887 -7.6739 0.0000 O 0 0 0 0 0 0 0 0 0 0 0 0
 5.9549 -4.1308 0.0000 O 0 0 0 0 0 0 0 0 0 0 0 0
 4.9320 -4.7214 0.0000 S 0 0 3 0 0 0 0 0 0 0 0 0
 3.9092 -4.1308 0.0000 O 0 0 0 0 0 0 0 0 0 0 0 0
 4.9320 -5.9025 0.0000 O 0 0 0 0 0 0 0 0 0 0 0 0
 5.9549 -5.3119 0.0000 O 0 0 0 0 0 0 0 0 0 0 0 0
 6 4 1 0 0 0 0
 5 6 2 0 0 0 0
 2 3 1 0 0 0 0
 1 5 1 0 0 0 0
 4 2 2 0 0 0 0
 3 1 2 0 0 0 0
 4 7 1 0 0 0 0
 7 8 1 0 0 0 0
 8 9 1 0 0 0 0
 8 10 1 6 0 0 0
 9 11 2 0 0 0 0
 9 12 1 0 0 0 0
 1 13 1 0 0 0 0
 13 14 1 0 0 0 0
 14 15 1 0 0 0 0
 14 16 2 0 0 0 0
 14 17 2 0 0 0 0
M END
]]></MOLFILE>
 <FRAGMENT_CONNECTIVTY>10; 9</FRAGMENT_CONNECTIVTY>
 <AMOUNT>
 <AVERAGE />
 <LOW_LIMIT />
 <HIGH_LIMIT />
 <UNIT />
 <NON_NUMERIC_VALUE />
 </AMOUNT>
 </MOLECULAR_FRAGMENT_MOIETY>
 </STRUCTURAL_MODIFICATION_GROUP>
 <STRUCTURAL_MODIFICATION_GROUP>
 <RESIDUE_MODIFIED />
 <RESIDUE_SITE />
 <NUMBER_OF_FRAGMENTS_MOIETIES />
 <AMOUNT_TYPE />
 <MOLECULAR_FRAGMENT_MOIETY>
 <STRUCTURAL_MODIFICATION_TYPE />
 <ROLE />
 <FRAGMENT_NUMBER />
 <MOLECULAR_FRAGMENT_NAME />
 <MOLECULAR_FRAGMENT_ID />
 <MOLECULAR_FRAGMENT_INCHI />
 <FRAGMENT_CONNECTIVTY>0;</FRAGMENT_CONNECTIVTY>
 <AMOUNT>
 <AVERAGE />
 <LOW_LIMIT />
 <HIGH_LIMIT />
 <UNIT />
 <NON_NUMERIC_VALUE />
 </AMOUNT>
 </MOLECULAR_FRAGMENT_MOIETY>
 </STRUCTURAL_MODIFICATION_GROUP>
 </MODIFICATION_GROUP>
 <PROPERTY_GROUP>
 <PROPERTY_TYPE />
 <PROPERTY />
 <PROPERTY_DESCRIPTION>
 <SUBSTANCE_NAME />
 <SUBSTANCE_ID />
 <SUBSTANCE_ID />
 <AMOUNT_TYPE />
 <AMOUNT>
 <AVERAGE />
 <LOW_LIMIT />
 <HIGH_LIMIT />
 <UNIT />
 <NON_NUMERIC_VALUE />
 </AMOUNT>
 </PROPERTY_DESCRIPTION>
 </PROPERTY_GROUP>
 <MOLECULAR_WEIGHT>
 <MOLECULAR_WEIGHT_TYPE />
 <MOLECULAR_WEIGHT_METHOD />
 <AMOUNT>
 <AVERAGE />
 <LOW_LIMIT />
 <HIGH_LIMIT />
 <UNIT />
 <NON_NUMERIC_VALUE />
 </AMOUNT>
 </MOLECULAR_WEIGHT>
 <COMMENTS />
 <PUBLIC_DOMAIN />
</PROTEIN>

$$$$
