C66H117NO5
YUtclcactv04271617092D 0   0.00000     0.00000     0
 
  0  0  0     0  0            999 V3000
M  V30 BEGIN CTAB
M  V30 COUNTS 82 85 0 0 1 REGNO=0
M  V30 BEGIN ATOM
M  V30 1 C 16.2029 -17.8709 0 0 CFG=2
M  V30 2 C 16.1972 -19.052 0 0 CFG=2
M  V30 3 C 15.1715 -19.6376 0 0 CFG=1
M  V30 4 C 14.1516 -19.0422 0 0 CFG=1
M  V30 5 C 13.1258 -19.6278 0 0 CFG=2
M  V30 6 C 13.1201 -20.8089 0 0
M  V30 7 C 12.0945 -21.3946 0 0
M  V30 8 C 11.0744 -20.7991 0 0 CFG=1
M  V30 9 O 9.6898 -21.5898 0 0
M  V30 10 C 11.0801 -19.6181 0 0
M  V30 11 C 12.1058 -19.0324 0 0
M  V30 12 C 14.1402 -21.4044 0 0
M  V30 13 C 15.1659 -20.8187 0 0
M  V30 14 C 13.1315 -18.4468 0 0
M  V30 15 H 14.1458 -20.2233 0 0
M  V30 16 C 14.1572 -17.8611 0 0
M  V30 17 C 15.1829 -17.2755 0 0
M  V30 18 H 15.1772 -18.4566 0 0
M  V30 19 C 17.3187 -19.4224 0 0
M  V30 20 C 18.0176 -18.4702 0 0
M  V30 21 C 17.328 -17.5113 0 0 CFG=2
M  V30 22 C 16.6864 -16.0516 0 0 CFG=1
M  V30 23 C 17.3851 -15.0994 0 0
M  V30 24 C 18.5592 -15.2285 0 0
M  V30 25 C 19.258 -14.2763 0 0 CFG=2
M  V30 26 C 20.432 -14.4054 0 0
M  V30 27 C 20.9072 -15.4867 0 0
M  V30 28 C 21.1308 -13.4532 0 0
M  V30 29 C 18.7828 -13.195 0 0
M  V30 30 C 19.4815 -12.2428 0 0
M  V30 31 C 15.5123 -15.9225 0 0
M  V30 32 H 18.3536 -16.9257 0 0
M  V30 33 H 16.315 -20.2273 0 0
M  V30 34 C 16.332 -16.6969 0 0
M  V30 35 C 20.9157 -26.9585 0 0
M  V30 36 C 19.8957 -26.3631 0 0
M  V30 37 C 18.87 -26.9487 0 0
M  V30 38 C 17.85 -26.3533 0 0
M  V30 39 C 16.8243 -26.9389 0 0
M  V30 40 C 15.8043 -26.3435 0 0
M  V30 41 C 14.7786 -26.9291 0 0
M  V30 42 C 13.7586 -26.3337 0 0
M  V30 43 C 12.7329 -26.9194 0 0
M  V30 44 C 11.7129 -26.3239 0 0
M  V30 45 O 10.7042 -23.3663 0 0
M  V30 46 C 9.6841 -22.7709 0 0
M  V30 47 O 5.5927 -22.7513 0 0
M  V30 48 C 1.4504 -33.3615 0 0
M  V30 49 C 1.4561 -32.1804 0 0
M  V30 50 C 2.4818 -31.5948 0 0
M  V30 51 C 2.4874 -30.4137 0 0
M  V30 52 C 3.5131 -29.828 0 0
M  V30 53 C 3.5188 -28.647 0 0
M  V30 54 C 4.5444 -28.0613 0 0
M  V30 55 C 4.5501 -26.8802 0 0
M  V30 56 C 5.5758 -26.2946 0 0
M  V30 57 C 5.5814 -25.1135 0 0
M  V30 58 C 6.6071 -24.5278 0 0
M  V30 59 C 6.6128 -23.3468 0 0
M  V30 60 N 7.6384 -22.7611 0 0
M  V30 61 C 8.6584 -23.3565 0 0 CFG=1
M  V30 62 C 8.6528 -24.5376 0 0
M  V30 63 C 7.6271 -25.1233 0 0
M  V30 64 O 6.5958 -26.89 0 0
M  V30 65 C 7.6215 -26.3044 0 0
M  V30 66 O 8.6415 -26.8998 0 0
M  V30 67 C 9.6672 -26.3141 0 0
M  V30 68 C 10.6872 -26.9096 0 0 CFG=1
M  V30 69 C 10.6816 -28.0907 0 0
M  V30 70 C 11.7016 -28.6861 0 0
M  V30 71 C 11.6959 -29.8672 0 0
M  V30 72 C 12.7159 -30.4626 0 0
M  V30 73 C 12.7103 -31.6437 0 0
M  V30 74 C 13.7303 -32.2391 0 0
M  V30 75 C 13.7246 -33.4202 0 0
M  V30 76 C 14.7447 -34.0157 0 0
M  V30 77 H 10.4361 -20.4265 0 0
M  V30 78 H 16.2491 -16.6475 0 0
M  V30 79 H 18.5233 -14.1955 0 0
M  V30 80 H 7.6419 -22.022 0 0
M  V30 81 H 8.66195 -22.6174 0 0
M  V30 82 H 10.0453 -27.2761 0 0
M  V30 END ATOM
M  V30 BEGIN BOND
M  V30 1 1 1 2
M  V30 2 1 2 3
M  V30 3 1 3 4
M  V30 4 1 4 5
M  V30 5 1 5 6
M  V30 6 1 6 7
M  V30 7 1 7 8
M  V30 8 1 8 9 CFG=1
M  V30 9 1 8 10
M  V30 10 1 10 11
M  V30 11 1 5 11
M  V30 12 2 6 12
M  V30 13 1 12 13
M  V30 14 1 3 13
M  V30 15 1 5 14 CFG=1
M  V30 16 1 4 15 CFG=3
M  V30 17 1 4 16
M  V30 18 1 16 17
M  V30 19 1 1 17
M  V30 20 1 3 18 CFG=1
M  V30 21 1 2 19
M  V30 22 1 19 20
M  V30 23 1 20 21
M  V30 24 1 1 21
M  V30 25 1 21 22
M  V30 26 1 22 23
M  V30 27 2 23 24
M  V30 28 1 24 25
M  V30 29 1 25 26
M  V30 30 1 26 27
M  V30 31 1 26 28
M  V30 32 1 25 29 CFG=1
M  V30 33 1 29 30
M  V30 34 1 22 31 CFG=3
M  V30 35 1 21 32 CFG=3
M  V30 36 1 2 33 CFG=3
M  V30 37 1 1 34 CFG=1
M  V30 38 1 35 36
M  V30 39 1 36 37
M  V30 40 1 37 38
M  V30 41 1 38 39
M  V30 42 1 39 40
M  V30 43 1 40 41
M  V30 44 1 41 42
M  V30 45 1 42 43
M  V30 46 1 43 44
M  V30 47 1 44 68
M  V30 48 2 45 46
M  V30 49 1 46 61
M  V30 50 2 47 59
M  V30 51 1 48 49
M  V30 52 1 49 50
M  V30 53 1 50 51
M  V30 54 1 51 52
M  V30 55 1 52 53
M  V30 56 1 53 54
M  V30 57 1 54 55
M  V30 58 1 55 56
M  V30 59 1 56 57
M  V30 60 1 57 58
M  V30 61 1 58 59
M  V30 62 1 59 60
M  V30 63 1 61 60 CFG=3
M  V30 64 1 61 62
M  V30 65 1 62 63
M  V30 66 1 63 65
M  V30 67 2 64 65
M  V30 68 1 65 66
M  V30 69 1 66 67
M  V30 70 1 68 67 CFG=3
M  V30 71 1 68 69
M  V30 72 1 69 70
M  V30 73 1 70 71
M  V30 74 1 71 72
M  V30 75 1 72 73
M  V30 76 1 73 74
M  V30 77 1 74 75
M  V30 78 1 75 76
M  V30 79 1 9 46
M  V30 80 1 8 77
M  V30 81 1 22 78
M  V30 82 1 25 79
M  V30 83 1 60 80
M  V30 84 1 61 81
M  V30 85 1 68 82
M  V30 END BOND
M  V30 BEGIN COLLECTION
M  V30 MDLV30/STEABS ATOMS=(10 1 2 3 4 5 8 21 22 25 61)
M  V30 MDLV30/STERAC1 ATOMS=(1 68)
M  V30 END COLLECTION
M  V30 END CTAB
M  END
> <SUBSTANCE_ID>
217733

> <UNII>
8PGW0Z5LIG

> <DESC_PART1>
<STEREOCHEMISTRY><OPT_ACT></OPT_ACT><TYPE>EPIMERIC</TYPE><COMMENTS></COMMENTS></
STEREOCHEMISTRY>

> <DESC_PART2>

> <COMMENTS>

> <CDBREGNO>
141077

> <STRUCTURE_ID>
100582

> <SUBSTANCE_NAME>

$$$$
