
  Symyx   04271720122D 1   1.00000     0.00000     0

 50 45  0     1  0            999 V2000
    2.6299  -12.8772    0.0000 H   0  0  0  0  0  0           0  0  0
    6.2933  -12.8468    0.0000 O   0  0  0  0  0  0           0  0  0
   13.1933   -8.7035    0.0000 O   0  0  0  0  0  0           0  0  0
    9.5299   -8.7340    0.0000 H   0  0  0  0  0  0           0  0  0
   12.2558  -18.4535    0.0000 O   0  0  0  0  0  0           0  0  0
    8.5924  -18.4840    0.0000 H   0  0  0  0  0  0           0  0  0
   15.5962  -13.4855    0.0000 H   0  0  0  0  0  0           0  0  0
   19.1607  -13.4676    0.0000 O   0  0  0  0  0  0           0  0  0
   19.9688  -17.8438    0.0000 O   0  0  0  0  0  0           0  0  0
    5.4160   -9.2291    0.0000 N   0  0  0  0  0  0           0  0  0
    5.3683  -14.0383    0.0000 O   0  0  0  0  0  0           0  0  0
    5.3683  -12.8531    0.0000 C   0  0  0  0  0  0           0  0  0
    3.4567  -12.8708    0.0000 N   0  0  0  0  0  0           0  0  0
    4.3877  -12.1902    0.0000 C   0  0  1  0  0  0           0  0  0
    4.3877  -11.0018    0.0000 C   0  0  0  0  0  0           0  0  0
    5.4160  -10.4095    0.0000 C   0  0  0  0  0  0           0  0  0
    6.5349  -10.7857    0.0000 C   0  0  0  0  0  0           0  0  0
    6.5544   -8.8757    0.0000 C   0  0  0  0  0  0           0  0  0
    7.2384   -9.8378    0.0000 N   0  5  0  0  0  0           0  0  0
   12.3160   -5.0858    0.0000 N   0  0  0  0  0  0           0  0  0
   12.2683   -9.8951    0.0000 O   0  0  0  0  0  0           0  0  0
   12.2683   -8.7099    0.0000 C   0  0  0  0  0  0           0  0  0
   10.3567   -8.7276    0.0000 N   0  0  0  0  0  0           0  0  0
   11.2877   -8.0470    0.0000 C   0  0  1  0  0  0           0  0  0
   11.2877   -6.8586    0.0000 C   0  0  0  0  0  0           0  0  0
   12.3160   -6.2663    0.0000 C   0  0  0  0  0  0           0  0  0
   13.4349   -6.6425    0.0000 C   0  0  0  0  0  0           0  0  0
   13.4544   -4.7325    0.0000 C   0  0  0  0  0  0           0  0  0
   14.1384   -5.6946    0.0000 N   0  5  0  0  0  0           0  0  0
   16.4240  -13.4855    0.0000 N   0  0  0  0  0  0           0  0  0
   17.3564  -12.8038    0.0000 C   0  0  2  0  0  0           0  0  0
   18.3385  -14.6547    0.0000 O   0  0  0  0  0  0           0  0  0
   18.3385  -13.4676    0.0000 C   0  0  0  0  0  0           0  0  0
   17.3564  -11.6136    0.0000 C   0  0  0  0  0  0           0  0  0
   18.3785  -11.0143    0.0000 C   0  0  0  0  0  0           0  0  0
   19.4014  -11.6062    0.0000 O   0  0  0  0  0  0           0  0  0
   18.3785   -9.8311    0.0000 O   0  5  0  0  0  0           0  0  0
   11.3785  -14.8358    0.0000 N   0  0  0  0  0  0           0  0  0
   11.3308  -19.6451    0.0000 O   0  0  0  0  0  0           0  0  0
   11.3308  -18.4599    0.0000 C   0  0  0  0  0  0           0  0  0
    9.4192  -18.4776    0.0000 N   0  0  0  0  0  0           0  0  0
   10.3502  -17.7970    0.0000 C   0  0  1  0  0  0           0  0  0
   10.3502  -16.6086    0.0000 C   0  0  0  0  0  0           0  0  0
   11.3785  -16.0163    0.0000 C   0  0  0  0  0  0           0  0  0
   12.4974  -16.3925    0.0000 C   0  0  0  0  0  0           0  0  0
   12.5169  -14.4825    0.0000 C   0  0  0  0  0  0           0  0  0
   13.2009  -15.4446    0.0000 N   0  5  0  0  0  0           0  0  0
   11.3125  -12.2313    0.0000 Mn  0  2  0  0  0  0           0  0  0
   15.8750   -7.7938    0.0000 H   0  3  0  0  0  0           0  0  0
    7.7188   -7.0125    0.0000 H   0  3  0  0  0  0           0  0  0
 13  1  1  0     0  0
 12  2  1  0     0  0
 22  3  1  0     0  0
 23  4  1  0     0  0
 40  5  1  0     0  0
 41  6  1  0     0  0
 30  7  1  0     0  0
 33  8  1  0     0  0
 13 14  1  0     0  0
 12 11  2  0     0  0
 14 12  1  0     0  0
 14 15  1  1     0  0
 15 16  1  0     0  0
 16 10  1  0     0  0
 17 16  2  0     0  0
 19 17  1  0     0  0
 18 19  1  0     0  0
 10 18  2  0     0  0
 23 24  1  0     0  0
 22 21  2  0     0  0
 24 22  1  0     0  0
 24 25  1  1     0  0
 25 26  1  0     0  0
 26 20  1  0     0  0
 27 26  2  0     0  0
 29 27  1  0     0  0
 28 29  1  0     0  0
 20 28  2  0     0  0
 33 32  2  0     0  0
 31 33  1  0     0  0
 35 37  1  0     0  0
 35 36  2  0     0  0
 34 35  1  0     0  0
 31 34  1  1     0  0
 30 31  1  0     0  0
 41 42  1  0     0  0
 40 39  2  0     0  0
 42 40  1  0     0  0
 42 43  1  1     0  0
 43 44  1  0     0  0
 44 38  1  0     0  0
 45 44  2  0     0  0
 47 45  1  0     0  0
 46 47  1  0     0  0
 38 46  2  0     0  0
M  CHG  7  19  -1  29  -1  37  -1  47  -1  48   2  49   1  50   1
M  END
>  <GSRS_JSON>
{"uuid":"6846c9a0-aad4-4ff3-b6b6-f83b4548dcbb","created":1414778350000,"createdBy":"YULIA.BORODINA","lastEdited":1488534976000,"lastEditedBy":"DAMMIKA.AMUGODA-KANK","deprecated":false,"definitionType":"PRIMARY","definitionLevel":"COMPLETE","substanceClass":"protein","status":"approved","version":"1","approvedBy":"SWITZERF","approved":1414787770000,"names":[{"uuid":"9769e46e-b601-42fa-933e-f7d3a0c8e6ec","created":1414787869001,"createdBy":"SWITZERF","lastEdited":1414787876001,"lastEditedBy":"SWITZERF","deprecated":false,"name":"SUPEROXIDE DISMUTASE (MN) SACCHAROMYCES CEREVISIAE","type":"cn","domains":[],"languages":["en"],"nameJurisdiction":[],"nameOrgs":[],"preferred":true,"displayName":true,"references":["2a97bd5c-6a52-47c4-adca-2e5e233ec65f","7349b27a-c3f8-4294-8002-02f285edb70c","cb4de064-7db6-4c33-8152-1baae15f7dd3"],"access":[],"_self":"/ginas/app/api/v1/names(9769e46e-b601-42fa-933e-f7d3a0c8e6ec)?view\u003dfull"}],"codes":[{"uuid":"616551ca-1ea5-4112-9eae-8e29dac693f9","created":1493464337159,"createdBy":"RAMEZ.GHAZZAOUI","lastEdited":1493464337159,"lastEditedBy":"RAMEZ.GHAZZAOUI","deprecated":false,"codeSystem":"BDNUM","code":"1103577AA","type":"PRIMARY","references":["7349b27a-c3f8-4294-8002-02f285edb70c"],"access":["protected"],"_self":"/ginas/app/api/v1/codes(616551ca-1ea5-4112-9eae-8e29dac693f9)?view\u003dfull"}],"modifications":{"uuid":"67241b4f-f137-440a-a643-022622fc5dd0","created":1493464337131,"createdBy":"RAMEZ.GHAZZAOUI","lastEdited":1493464337131,"lastEditedBy":"RAMEZ.GHAZZAOUI","deprecated":false,"agentModifications":[],"physicalModifications":[],"structuralModifications":[{"uuid":"06859b40-472b-4a9b-8085-601ade1b94a1","created":1493464337133,"createdBy":"RAMEZ.GHAZZAOUI","lastEdited":1493464337133,"lastEditedBy":"RAMEZ.GHAZZAOUI","deprecated":false,"structuralModificationType":"AMINO ACID SUBSTITUTION","residueModified":"THR","extent":"COMPLETE","molecularFragment":{"uuid":"e6da7b0f-98a5-4e59-b2f7-3c5317a78b97","created":1.493464337132E12,"createdBy":"RAMEZ.GHAZZAOUI","lastEdited":1.493464337132E12,"lastEditedBy":"RAMEZ.GHAZZAOUI","deprecated":false,"refPname":"THREONINE PHOSPHATE","refuuid":"96bbf36a-d049-4313-9712-8608530faef7","substanceClass":"reference","approvalID":"3L4WX7B1EI","name":"THREONINE PHOSPHATE","linkingID":"3L4WX7B1EI","references":[],"access":[]},"sites":[{"subunitIndex":1,"residueIndex":121},{"subunitIndex":1,"residueIndex":123},{"subunitIndex":2,"residueIndex":121},{"subunitIndex":2,"residueIndex":123},{"subunitIndex":3,"residueIndex":121},{"subunitIndex":3,"residueIndex":123},{"subunitIndex":4,"residueIndex":121},{"subunitIndex":4,"residueIndex":123}],"references":[],"access":[]},{"uuid":"b6740af4-0a7a-4633-87f2-2c0752fda7f2","created":1493464337136,"createdBy":"RAMEZ.GHAZZAOUI","lastEdited":1493464337136,"lastEditedBy":"RAMEZ.GHAZZAOUI","deprecated":false,"structuralModificationType":"AMINO ACID SUBSTITUTION","residueModified":"His","extent":"COMPLETE","sites":[{"subunitIndex":1,"residueIndex":26},{"subunitIndex":2,"residueIndex":26},{"subunitIndex":3,"residueIndex":26},{"subunitIndex":4,"residueIndex":26}],"references":[],"access":[]},{"uuid":"67058b05-e111-4e09-9fc0-15b021896682","created":1493464337137,"createdBy":"RAMEZ.GHAZZAOUI","lastEdited":1493464337137,"lastEditedBy":"RAMEZ.GHAZZAOUI","deprecated":false,"structuralModificationType":"AMINO ACID SUBSTITUTION","residueModified":"His","extent":"COMPLETE","sites":[{"subunitIndex":1,"residueIndex":81},{"subunitIndex":2,"residueIndex":81},{"subunitIndex":3,"residueIndex":81},{"subunitIndex":4,"residueIndex":81}],"references":[],"access":[]},{"uuid":"9b316fce-ee8a-4c92-a5b5-7dc53d339d56","created":1493464337138,"createdBy":"RAMEZ.GHAZZAOUI","lastEdited":1493464337138,"lastEditedBy":"RAMEZ.GHAZZAOUI","deprecated":false,"structuralModificationType":"AMINO ACID SUBSTITUTION","residueModified":"Asp","extent":"COMPLETE","sites":[{"subunitIndex":1,"residueIndex":168},{"subunitIndex":2,"residueIndex":168},{"subunitIndex":3,"residueIndex":168},{"subunitIndex":4,"residueIndex":168}],"references":[],"access":[]},{"uuid":"2971e322-998d-4b4e-8fdc-99415af8ccd3","created":1493464337139,"createdBy":"RAMEZ.GHAZZAOUI","lastEdited":1493464337139,"lastEditedBy":"RAMEZ.GHAZZAOUI","deprecated":false,"structuralModificationType":"AMINO ACID SUBSTITUTION","residueModified":"His","extent":"COMPLETE","sites":[{"subunitIndex":1,"residueIndex":172},{"subunitIndex":2,"residueIndex":172},{"subunitIndex":3,"residueIndex":172},{"subunitIndex":4,"residueIndex":172}],"references":[],"access":[]}],"references":[],"access":[]},"notes":[{"uuid":"bf42a6eb-0efc-4f1a-a491-e5a11283460b","created":1493464337164,"createdBy":"RAMEZ.GHAZZAOUI","lastEdited":1493464337164,"lastEditedBy":"RAMEZ.GHAZZAOUI","deprecated":false,"note":"[Validation]WARNING:Protein has no molecular weight, defaulting to calculated value of: 92344.30","references":["0a7949fb-9328-4eda-8ac6-d81b44accc8a"],"access":["admin"]},{"uuid":"595d6104-2392-4a64-9a0e-b2acb18c4369","created":1493464337163,"createdBy":"RAMEZ.GHAZZAOUI","lastEdited":1493464337163,"lastEditedBy":"RAMEZ.GHAZZAOUI","deprecated":false,"note":"Legacy Molfile:\n  Symyx   04271720122D 1   1.00000     0.00000     0\n\n 50 45  0     1  0            999 V2000\n    2.6299  -12.8772    0.0000 H   0  0  0  0  0  0           0  0  0\n    6.2933  -12.8468    0.0000 O   0  0  0  0  0  0           0  0  0\n   13.1933   -8.7035    0.0000 O   0  0  0  0  0  0           0  0  0\n    9.5299   -8.7340    0.0000 H   0  0  0  0  0  0           0  0  0\n   12.2558  -18.4535    0.0000 O   0  0  0  0  0  0           0  0  0\n    8.5924  -18.4840    0.0000 H   0  0  0  0  0  0           0  0  0\n   15.5962  -13.4855    0.0000 H   0  0  0  0  0  0           0  0  0\n   19.1607  -13.4676    0.0000 O   0  0  0  0  0  0           0  0  0\n   19.9688  -17.8438    0.0000 O   0  0  0  0  0  0           0  0  0\n    5.4160   -9.2291    0.0000 N   0  0  0  0  0  0           0  0  0\n    5.3683  -14.0383    0.0000 O   0  0  0  0  0  0           0  0  0\n    5.3683  -12.8531    0.0000 C   0  0  0  0  0  0           0  0  0\n    3.4567  -12.8708    0.0000 N   0  0  0  0  0  0           0  0  0\n    4.3877  -12.1902    0.0000 C   0  0  1  0  0  0           0  0  0\n    4.3877  -11.0018    0.0000 C   0  0  0  0  0  0           0  0  0\n    5.4160  -10.4095    0.0000 C   0  0  0  0  0  0           0  0  0\n    6.5349  -10.7857    0.0000 C   0  0  0  0  0  0           0  0  0\n    6.5544   -8.8757    0.0000 C   0  0  0  0  0  0           0  0  0\n    7.2384   -9.8378    0.0000 N   0  5  0  0  0  0           0  0  0\n   12.3160   -5.0858    0.0000 N   0  0  0  0  0  0           0  0  0\n   12.2683   -9.8951    0.0000 O   0  0  0  0  0  0           0  0  0\n   12.2683   -8.7099    0.0000 C   0  0  0  0  0  0           0  0  0\n   10.3567   -8.7276    0.0000 N   0  0  0  0  0  0           0  0  0\n   11.2877   -8.0470    0.0000 C   0  0  1  0  0  0           0  0  0\n   11.2877   -6.8586    0.0000 C   0  0  0  0  0  0           0  0  0\n   12.3160   -6.2663    0.0000 C   0  0  0  0  0  0           0  0  0\n   13.4349   -6.6425    0.0000 C   0  0  0  0  0  0           0  0  0\n   13.4544   -4.7325    0.0000 C   0  0  0  0  0  0           0  0  0\n   14.1384   -5.6946    0.0000 N   0  5  0  0  0  0           0  0  0\n   16.4240  -13.4855    0.0000 N   0  0  0  0  0  0           0  0  0\n   17.3564  -12.8038    0.0000 C   0  0  2  0  0  0           0  0  0\n   18.3385  -14.6547    0.0000 O   0  0  0  0  0  0           0  0  0\n   18.3385  -13.4676    0.0000 C   0  0  0  0  0  0           0  0  0\n   17.3564  -11.6136    0.0000 C   0  0  0  0  0  0           0  0  0\n   18.3785  -11.0143    0.0000 C   0  0  0  0  0  0           0  0  0\n   19.4014  -11.6062    0.0000 O   0  0  0  0  0  0           0  0  0\n   18.3785   -9.8311    0.0000 O   0  5  0  0  0  0           0  0  0\n   11.3785  -14.8358    0.0000 N   0  0  0  0  0  0           0  0  0\n   11.3308  -19.6451    0.0000 O   0  0  0  0  0  0           0  0  0\n   11.3308  -18.4599    0.0000 C   0  0  0  0  0  0           0  0  0\n    9.4192  -18.4776    0.0000 N   0  0  0  0  0  0           0  0  0\n   10.3502  -17.7970    0.0000 C   0  0  1  0  0  0           0  0  0\n   10.3502  -16.6086    0.0000 C   0  0  0  0  0  0           0  0  0\n   11.3785  -16.0163    0.0000 C   0  0  0  0  0  0           0  0  0\n   12.4974  -16.3925    0.0000 C   0  0  0  0  0  0           0  0  0\n   12.5169  -14.4825    0.0000 C   0  0  0  0  0  0           0  0  0\n   13.2009  -15.4446    0.0000 N   0  5  0  0  0  0           0  0  0\n   11.3125  -12.2313    0.0000 Mn  0  2  0  0  0  0           0  0  0\n   15.8750   -7.7938    0.0000 H   0  3  0  0  0  0           0  0  0\n    7.7188   -7.0125    0.0000 H   0  3  0  0  0  0           0  0  0\n 13  1  1  0     0  0\n 12  2  1  0     0  0\n 22  3  1  0     0  0\n 23  4  1  0     0  0\n 40  5  1  0     0  0\n 41  6  1  0     0  0\n 30  7  1  0     0  0\n 33  8  1  0     0  0\n 13 14  1  0     0  0\n 12 11  2  0     0  0\n 14 12  1  0     0  0\n 14 15  1  1     0  0\n 15 16  1  0     0  0\n 16 10  1  0     0  0\n 17 16  2  0     0  0\n 19 17  1  0     0  0\n 18 19  1  0     0  0\n 10 18  2  0     0  0\n 23 24  1  0     0  0\n 22 21  2  0     0  0\n 24 22  1  0     0  0\n 24 25  1  1     0  0\n 25 26  1  0     0  0\n 26 20  1  0     0  0\n 27 26  2  0     0  0\n 29 27  1  0     0  0\n 28 29  1  0     0  0\n 20 28  2  0     0  0\n 33 32  2  0     0  0\n 31 33  1  0     0  0\n 35 37  1  0     0  0\n 35 36  2  0     0  0\n 34 35  1  0     0  0\n 31 34  1  1     0  0\n 30 31  1  0     0  0\n 41 42  1  0     0  0\n 40 39  2  0     0  0\n 42 40  1  0     0  0\n 42 43  1  1     0  0\n 43 44  1  0     0  0\n 44 38  1  0     0  0\n 45 44  2  0     0  0\n 47 45  1  0     0  0\n 46 47  1  0     0  0\n 38 46  2  0     0  0\nM  CHG  7  19  -1  29  -1  37  -1  47  -1  48   2  49   1  50   1\nM  END\n","references":[],"access":[]},{"uuid":"94967d43-2864-4a95-995c-42bb3aec1d9b","created":1493464337162,"createdBy":"RAMEZ.GHAZZAOUI","lastEdited":1493464337162,"lastEditedBy":"RAMEZ.GHAZZAOUI","deprecated":false,"note":"LEGACY XML:\u003cPROTEIN\u003e\n \u003cSEQUENCE_TYPE\u003eCOMPLETE\u003c/SEQUENCE_TYPE\u003e\n \u003cNUMBER_OF_SUBUNITS\u003e4\u003c/NUMBER_OF_SUBUNITS\u003e\n\u003cSUBUNIT_GROUP\u003e\n \u003cSUBUNIT\u003e1\u003c/SUBUNIT\u003e\n \u003cLENGTH\u003e207\u003c/LENGTH\u003e\n \u003cSEQUENCE\u003eKVTLPDLKWDFGALEPYISGQINELHYTKHHQTYVNGFNTAVDQFQELSDLLAKEPSPANARKMIAIQQNIKFHGGGFTNHCLFWENLAPESQGGGEPPTGALAKAIDEQFGSLDELIKLTNTKLAGVQGSGWAFIVKNLSNGGKLDVVQTYNQDTVTGPLVPLVAIDAWEHAYYLQYQNKKADYFKAIWNVVNWKEASRRFDAGKI\u003c/SEQUENCE\u003e\n \u003c/SUBUNIT_GROUP\u003e\n\u003cSUBUNIT_GROUP\u003e\n \u003cSUBUNIT\u003e2\u003c/SUBUNIT\u003e\n \u003cLENGTH\u003e207\u003c/LENGTH\u003e\n \u003cSEQUENCE\u003eKVTLPDLKWDFGALEPYISGQINELHYTKHHQTYVNGFNTAVDQFQELSDLLAKEPSPANARKMIAIQQNIKFHGGGFTNHCLFWENLAPESQGGGEPPTGALAKAIDEQFGSLDELIKLTNTKLAGVQGSGWAFIVKNLSNGGKLDVVQTYNQDTVTGPLVPLVAIDAWEHAYYLQYQNKKADYFKAIWNVVNWKEASRRFDAGKI\u003c/SEQUENCE\u003e\n \u003c/SUBUNIT_GROUP\u003e\n\u003cSUBUNIT_GROUP\u003e\n \u003cSUBUNIT\u003e3\u003c/SUBUNIT\u003e\n \u003cLENGTH\u003e207\u003c/LENGTH\u003e\n \u003cSEQUENCE\u003eKVTLPDLKWDFGALEPYISGQINELHYTKHHQTYVNGFNTAVDQFQELSDLLAKEPSPANARKMIAIQQNIKFHGGGFTNHCLFWENLAPESQGGGEPPTGALAKAIDEQFGSLDELIKLTNTKLAGVQGSGWAFIVKNLSNGGKLDVVQTYNQDTVTGPLVPLVAIDAWEHAYYLQYQNKKADYFKAIWNVVNWKEASRRFDAGKI\u003c/SEQUENCE\u003e\n \u003c/SUBUNIT_GROUP\u003e\n\u003cSUBUNIT_GROUP\u003e\n \u003cSUBUNIT\u003e4\u003c/SUBUNIT\u003e\n \u003cLENGTH\u003e207\u003c/LENGTH\u003e\n \u003cSEQUENCE\u003eKVTLPDLKWDFGALEPYISGQINELHYTKHHQTYVNGFNTAVDQFQELSDLLAKEPSPANARKMIAIQQNIKFHGGGFTNHCLFWENLAPESQGGGEPPTGALAKAIDEQFGSLDELIKLTNTKLAGVQGSGWAFIVKNLSNGGKLDVVQTYNQDTVTGPLVPLVAIDAWEHAYYLQYQNKKADYFKAIWNVVNWKEASRRFDAGKI\u003c/SEQUENCE\u003e\n \u003c/SUBUNIT_GROUP\u003e\n \u003cDISULFIDE_LINKAGE/\u003e\n\u003cOTHER_LINKAGE\u003e\n \u003cSITE\u003e1_26-1_81-1_168-1_172; 2_26-2_81-2_168-2_172; 3_26-3_81-3_168-3_172; 4_26-4_81-4_168-4_172;\u003c/SITE\u003e\n \u003cLINKAGE_TYPE\u003eCOORDINATION COMPOUND\u003c/LINKAGE_TYPE\u003e\n \u003c/OTHER_LINKAGE\u003e\n\u003cGLYCOSYLATION\u003e\n \u003cGLYCOSYLATION_TYPE/\u003e\n \u003cN_GLYCOSYLATION/\u003e\n \u003cO_GLYCOSYLATION/\u003e\n \u003cC_GLYCOSYLATION/\u003e\n \u003c/GLYCOSYLATION\u003e\n\u003cMODIFICATION_GROUP\u003e\n\u003cPHYSICAL_MODIFICATION_GROUP\u003e\n \u003cROLE/\u003e\n \u003cNUMBER_OF_PARAMETERS/\u003e\n\u003cPARAMETER_GROUP\u003e\n \u003cPARAMETER/\u003e\n\u003cAMOUNT\u003e\n \u003cAVERAGE/\u003e\n \u003cLOW_LIMIT/\u003e\n \u003cHIGH_LIMIT/\u003e\n \u003cUNIT/\u003e\n \u003cNON_NUMERIC_VALUE/\u003e\n \u003c/AMOUNT\u003e\n \u003c/PARAMETER_GROUP\u003e\n \u003c/PHYSICAL_MODIFICATION_GROUP\u003e\n\u003cAGENT_MODIFICATION_GROUP\u003e\n \u003cAGENT_MODIFICATION_TYPE/\u003e\n \u003cROLE/\u003e\n \u003cMODIFICATION_AGENT/\u003e\n \u003cMODIFICATION_AGENT_ID/\u003e\n \u003cMODIFICATION_PROCESS/\u003e\n \u003cAMOUNT_TYPE/\u003e\n\u003cAMOUNT\u003e\n \u003cAVERAGE/\u003e\n \u003cLOW_LIMIT/\u003e\n \u003cHIGH_LIMIT/\u003e\n \u003cUNIT/\u003e\n \u003cNON_NUMERIC_VALUE/\u003e\n \u003c/AMOUNT\u003e\n \u003c/AGENT_MODIFICATION_GROUP\u003e\n\u003cSTRUCTURAL_MODIFICATION_GROUP\u003e\n \u003cRESIDUE_MODIFIED\u003eTHR\u003c/RESIDUE_MODIFIED\u003e\n \u003cRESIDUE_SITE\u003e1_121; 1_123; 2_121; 2_123; 3_121; 3_123; 4_121; 4_123\u003c/RESIDUE_SITE\u003e\n \u003cNUMBER_OF_FRAGMENTS_MOIETIES/\u003e\n \u003cAMOUNT_TYPE/\u003e\n\u003cMOLECULAR_FRAGMENT_MOIETY\u003e\n \u003cSTRUCTURAL_MODIFICATION_TYPE\u003eAMINO ACID SUBSTITUTION\u003c/STRUCTURAL_MODIFICATION_TYPE\u003e\n \u003cROLE\u003ePHOSPHORYLATION\u003c/ROLE\u003e\n \u003cFRAGMENT_NUMBER/\u003e\n \u003cMOLECULAR_FRAGMENT_NAME\u003ePhosphothreonine\u003c/MOLECULAR_FRAGMENT_NAME\u003e\n \u003cMOLECULAR_FRAGMENT_ID\u003e3L4WX7B1EI\u003c/MOLECULAR_FRAGMENT_ID\u003e\n \u003cMOLECULAR_FRAGMENT_INCHI/\u003e\n \u003cFRAGMENT_CONNECTIVTY\u003e9; 6\u003c/FRAGMENT_CONNECTIVTY\u003e\n\u003cAMOUNT\u003e\n \u003cAVERAGE/\u003e\n \u003cLOW_LIMIT/\u003e\n \u003cHIGH_LIMIT/\u003e\n \u003cUNIT/\u003e\n \u003cNON_NUMERIC_VALUE/\u003e\n \u003c/AMOUNT\u003e\n \u003cMOLFILE\u003e ACCLDraw07181414432D 13 12 0 0 1 0 0 0 0 0999 V2000 5.7696 -3.3313 0.0000 O 0 0 0 0 0 0 0 0 0 0 0 0 6.6286 -4.1418 0.0000 P 0 0 3 0 0 0 0 0 0 0 0 0 7.6339 -3.5218 0.0000 O 0 0 0 0 0 0 0 0 0 0 0 0 8.6735 -4.0824 0.0000 C 0 0 1 0 0 0 0 0 0 0 0 0 8.7078 -5.2630 0.0000 C 0 0 1 0 0 0 0 0 0 0 0 0 9.7474 -5.8236 0.0000 C 0 0 0 0 0 0 0 0 0 0 0 0 9.7817 -7.0042 0.0000 O 0 0 0 0 0 0 0 0 0 0 0 0 10.7527 -5.2036 0.0000 O 0 0 0 0 0 0 0 0 0 0 0 0 7.7025 -5.8830 0.0000N 0 0 0 0 0 0 0 0 0 0 0 0 9.6788 -3.4624 0.0000 C 0 0 0 0 0 0 0 0 0 0 0 0 10.7184 -4.0230 0.0000 C 0 0 0 0 0 0 0 0 0 0 0 0 5.4794 -3.8694 0.0000 O 0 0 0 0 0 0 0 0 0 0 0 0 6.6629 -5.3224 0.0000 O 0 0 0 0 0 0 0 0 0 0 0 0 1 2 1 0 0 0 0 2 3 1 0 0 0 0 4 3 1 6 0 0 0 4 5 1 0 0 0 0 5 6 1 1 0 0 0 6 7 1 0 0 0 0 6 8 2 0 0 0 0 5 9 1 0 0 0 0 4 10 1 0 0 0 0 10 11 1 0 0 0 0 2 12 1 0 0 0 0 2 13 2 0 0 0 0 M END \u003c/MOLFILE\u003e\n \u003c/MOLECULAR_FRAGMENT_MOIETY\u003e\n \u003c/STRUCTURAL_MODIFICATION_GROUP\u003e\n\u003cSTRUCTURAL_MODIFICATION_GROUP\u003e\n \u003cRESIDUE_MODIFIED\u003eHis\u003c/RESIDUE_MODIFIED\u003e\n \u003cRESIDUE_SITE\u003e1_26; 2_26; 3_26; 4_26\u003c/RESIDUE_SITE\u003e\n \u003cNUMBER_OF_FRAGMENTS_MOIETIES/\u003e\n \u003cAMOUNT_TYPE/\u003e\n\u003cMOLECULAR_FRAGMENT_MOIETY\u003e\n \u003cSTRUCTURAL_MODIFICATION_TYPE/\u003e\n \u003cROLE\u003eAMINO ACID SUBSTITUTION\u003c/ROLE\u003e\n \u003cFRAGMENT_NUMBER/\u003e\n \u003cMOLECULAR_FRAGMENT_NAME/\u003e\n \u003cMOLECULAR_FRAGMENT_ID/\u003e\n \u003cMOLECULAR_FRAGMENT_INCHI/\u003e\n \u003cMOLFILE external\u003d\"1\"/\u003e\n \u003cFRAGMENT_CONNECTIVTY\u003e13; 12\u003c/FRAGMENT_CONNECTIVTY\u003e\n\u003cAMOUNT\u003e\n \u003cAVERAGE/\u003e\n \u003cLOW_LIMIT/\u003e\n \u003cHIGH_LIMIT/\u003e\n \u003cUNIT/\u003e\n \u003cNON_NUMERIC_VALUE/\u003e\n \u003c/AMOUNT\u003e\n \u003c/MOLECULAR_FRAGMENT_MOIETY\u003e\n \u003c/STRUCTURAL_MODIFICATION_GROUP\u003e\n\u003cSTRUCTURAL_MODIFICATION_GROUP\u003e\n \u003cRESIDUE_MODIFIED\u003eHis\u003c/RESIDUE_MODIFIED\u003e\n \u003cRESIDUE_SITE\u003e1_81; 2_81; 3_81; 4_81\u003c/RESIDUE_SITE\u003e\n \u003cNUMBER_OF_FRAGMENTS_MOIETIES/\u003e\n \u003cAMOUNT_TYPE/\u003e\n\u003cMOLECULAR_FRAGMENT_MOIETY\u003e\n \u003cSTRUCTURAL_MODIFICATION_TYPE/\u003e\n \u003cROLE\u003eAMINO ACID SUBSTITUTION\u003c/ROLE\u003e\n \u003cFRAGMENT_NUMBER/\u003e\n \u003cMOLECULAR_FRAGMENT_NAME/\u003e\n \u003cMOLECULAR_FRAGMENT_ID/\u003e\n \u003cMOLECULAR_FRAGMENT_INCHI/\u003e\n \u003cMOLFILE external\u003d\"1\"/\u003e\n \u003cFRAGMENT_CONNECTIVTY\u003e23; 22\u003c/FRAGMENT_CONNECTIVTY\u003e\n\u003cAMOUNT\u003e\n \u003cAVERAGE/\u003e\n \u003cLOW_LIMIT/\u003e\n \u003cHIGH_LIMIT/\u003e\n \u003cUNIT/\u003e\n \u003cNON_NUMERIC_VALUE/\u003e\n \u003c/AMOUNT\u003e\n \u003c/MOLECULAR_FRAGMENT_MOIETY\u003e\n \u003c/STRUCTURAL_MODIFICATION_GROUP\u003e\n\u003cSTRUCTURAL_MODIFICATION_GROUP\u003e\n \u003cRESIDUE_MODIFIED\u003eAsp\u003c/RESIDUE_MODIFIED\u003e\n \u003cRESIDUE_SITE\u003e1_168; 2_168; 3_168; 4_168\u003c/RESIDUE_SITE\u003e\n \u003cNUMBER_OF_FRAGMENTS_MOIETIES/\u003e\n \u003cAMOUNT_TYPE/\u003e\n\u003cMOLECULAR_FRAGMENT_MOIETY\u003e\n \u003cSTRUCTURAL_MODIFICATION_TYPE/\u003e\n \u003cROLE\u003eAMINO ACID SUBSTITUTION\u003c/ROLE\u003e\n \u003cFRAGMENT_NUMBER/\u003e\n \u003cMOLECULAR_FRAGMENT_NAME/\u003e\n \u003cMOLECULAR_FRAGMENT_ID/\u003e\n \u003cMOLECULAR_FRAGMENT_INCHI/\u003e\n \u003cMOLFILE external\u003d\"1\"/\u003e\n \u003cFRAGMENT_CONNECTIVTY\u003e30; 33\u003c/FRAGMENT_CONNECTIVTY\u003e\n\u003cAMOUNT\u003e\n \u003cAVERAGE/\u003e\n \u003cLOW_LIMIT/\u003e\n \u003cHIGH_LIMIT/\u003e\n \u003cUNIT/\u003e\n \u003cNON_NUMERIC_VALUE/\u003e\n \u003c/AMOUNT\u003e\n \u003c/MOLECULAR_FRAGMENT_MOIETY\u003e\n \u003c/STRUCTURAL_MODIFICATION_GROUP\u003e\n\u003cSTRUCTURAL_MODIFICATION_GROUP\u003e\n \u003cRESIDUE_MODIFIED\u003eHis\u003c/RESIDUE_MODIFIED\u003e\n \u003cRESIDUE_SITE\u003e1_172; 2_172; 3_172; 4_172\u003c/RESIDUE_SITE\u003e\n \u003cNUMBER_OF_FRAGMENTS_MOIETIES/\u003e\n \u003cAMOUNT_TYPE/\u003e\n\u003cMOLECULAR_FRAGMENT_MOIETY\u003e\n \u003cSTRUCTURAL_MODIFICATION_TYPE/\u003e\n \u003cROLE\u003eAMINO ACID SUBSTITUTION\u003c/ROLE\u003e\n \u003cFRAGMENT_NUMBER/\u003e\n \u003cMOLECULAR_FRAGMENT_NAME/\u003e\n \u003cMOLECULAR_FRAGMENT_ID/\u003e\n \u003cMOLECULAR_FRAGMENT_INCHI/\u003e\n \u003cMOLFILE external\u003d\"1\"/\u003e\n \u003cFRAGMENT_CONNECTIVTY\u003e41; 40\u003c/FRAGMENT_CONNECTIVTY\u003e\n\u003cAMOUNT\u003e\n \u003cAVERAGE/\u003e\n \u003cLOW_LIMIT/\u003e\n \u003cHIGH_LIMIT/\u003e\n \u003cUNIT/\u003e\n \u003cNON_NUMERIC_VALUE/\u003e\n \u003c/AMOUNT\u003e\n \u003c/MOLECULAR_FRAGMENT_MOIETY\u003e\n \u003c/STRUCTURAL_MODIFICATION_GROUP\u003e\n \u003c/MODIFICATION_GROUP\u003e\n\u003cPROPERTY_GROUP\u003e\n \u003cPROPERTY_TYPE/\u003e\n \u003cPROPERTY/\u003e\n\u003cPROPERTY_DESCRIPTION\u003e\n \u003cSUBSTANCE_NAME/\u003e\n \u003cSUBSTANCE_ID/\u003e\n \u003cSUBSTANCE_ID/\u003e\n \u003cAMOUNT_TYPE/\u003e\n\u003cAMOUNT\u003e\n \u003cAVERAGE/\u003e\n \u003cLOW_LIMIT/\u003e\n \u003cHIGH_LIMIT/\u003e\n \u003cUNIT/\u003e\n \u003cNON_NUMERIC_VALUE/\u003e\n \u003c/AMOUNT\u003e\n \u003c/PROPERTY_DESCRIPTION\u003e\n \u003c/PROPERTY_GROUP\u003e\n\u003cMOLECULAR_WEIGHT\u003e\n \u003cMOLECULAR_WEIGHT_TYPE/\u003e\n \u003cMOLECULAR_WEIGHT_METHOD/\u003e\n\u003cAMOUNT\u003e\n \u003cAVERAGE/\u003e\n \u003cLOW_LIMIT/\u003e\n \u003cHIGH_LIMIT/\u003e\n \u003cUNIT/\u003e\n \u003cNON_NUMERIC_VALUE/\u003e\n \u003c/AMOUNT\u003e\n \u003c/MOLECULAR_WEIGHT\u003e\n \u003cCOMMENTS/\u003e\n \u003cPUBLIC_DOMAIN/\u003e\n \u003c/PROTEIN\u003e","references":["41d0fc09-2647-4fc2-a939-19120d74f232"],"access":["protected"]},{"uuid":"b09ef871-5939-4fc2-a75b-dad46e1417c6","created":1493464337161,"createdBy":"RAMEZ.GHAZZAOUI","lastEdited":1493464337161,"lastEditedBy":"RAMEZ.GHAZZAOUI","deprecated":false,"note":"Legacy Info:\u003cSRS_LEGACY_DATA\u003e\u003cCREATED_BY\u003eYULIA.BORODINA\u003c/CREATED_BY\u003e\u003cCREATED_DATE\u003e2014-10-31 13:59:10.0\u003c/CREATED_DATE\u003e\u003cMODIFIED_BY\u003eDAMMIKA.AMUGODA-KANK\u003c/MODIFIED_BY\u003e\u003cMODIFIED_DATE\u003e2017-03-03 04:56:16.0\u003c/MODIFIED_DATE\u003e\u003cAPPROVED_BY\u003eSWITZERF\u003c/APPROVED_BY\u003e\u003cAPPROVED_DATE\u003e2014-10-31 16:36:10.0\u003c/APPROVED_DATE\u003e\u003c/SRS_LEGACY_DATA\u003e","references":["41d0fc09-2647-4fc2-a939-19120d74f232"],"access":["protected"]}],"properties":[{"uuid":"eece1f32-3afc-4407-b2ec-9d3c21fc72b0","created":1493464337166,"createdBy":"RAMEZ.GHAZZAOUI","lastEdited":1493464337166,"lastEditedBy":"RAMEZ.GHAZZAOUI","deprecated":false,"name":"MOL_WEIGHT:NUMBER(CALCULATED)","type":"amount","propertyType":"CHEMICAL","value":{"uuid":"e15361db-3a0c-4264-bb66-5d390107917e","created":1493464337165,"createdBy":"RAMEZ.GHAZZAOUI","lastEdited":1493464337165,"lastEditedBy":"RAMEZ.GHAZZAOUI","deprecated":false,"type":"ESTIMATED","average":92300.0,"units":"Da","references":[],"access":[]},"parameters":[],"references":[],"access":[],"defining":false}],"relationships":[],"references":[{"uuid":"0a7949fb-9328-4eda-8ac6-d81b44accc8a","created":1493464337173,"createdBy":"RAMEZ.GHAZZAOUI","lastEdited":1493464337173,"lastEditedBy":"RAMEZ.GHAZZAOUI","deprecated":false,"citation":"GSRS System-generated Validation messages","docType":"VALIDATION_MESSAGE","documentDate":1493464336671,"publicDomain":false,"tags":[],"access":["admin"],"_self":"/ginas/app/api/v1/references(0a7949fb-9328-4eda-8ac6-d81b44accc8a)?view\u003dfull"},{"uuid":"7d47e89c-6a91-4288-b0ac-caecb1e41fd7","created":1493464337173,"createdBy":"RAMEZ.GHAZZAOUI","lastEdited":1493464337173,"lastEditedBy":"RAMEZ.GHAZZAOUI","deprecated":false,"citation":"jsonDump-2017-04-28--all-but-first-500-records.txt.zip","docType":"BATCH_IMPORT","documentDate":1493464325052,"publicDomain":false,"tags":[],"id":"773bab31c7fb3258757b","access":[],"_self":"/ginas/app/api/v1/references(7d47e89c-6a91-4288-b0ac-caecb1e41fd7)?view\u003dfull"},{"uuid":"a5448d47-9c12-4431-9bb8-0e688fc7b0d8","created":1493464337172,"createdBy":"RAMEZ.GHAZZAOUI","lastEdited":1493464337172,"lastEditedBy":"RAMEZ.GHAZZAOUI","deprecated":false,"citation":"UNIPROT","docType":"SRS","publicDomain":true,"tags":["NOMEN"],"access":[],"_self":"/ginas/app/api/v1/references(a5448d47-9c12-4431-9bb8-0e688fc7b0d8)?view\u003dfull"},{"uuid":"41d0fc09-2647-4fc2-a939-19120d74f232","created":1493464337171,"createdBy":"RAMEZ.GHAZZAOUI","lastEdited":1493464337171,"lastEditedBy":"RAMEZ.GHAZZAOUI","deprecated":false,"citation":"SRS import [0192074X0K]","docType":"SRS","documentDate":1493392005000,"publicDomain":true,"tags":["NOMEN"],"url":"http://fdasis.nlm.nih.gov/srs/srsdirect.jsp?regno\u003d0192074X0K","access":[],"_self":"/ginas/app/api/v1/references(41d0fc09-2647-4fc2-a939-19120d74f232)?view\u003dfull"},{"uuid":"cb4de064-7db6-4c33-8152-1baae15f7dd3","created":1493464337171,"createdBy":"RAMEZ.GHAZZAOUI","lastEdited":1493464337171,"lastEditedBy":"RAMEZ.GHAZZAOUI","deprecated":false,"citation":"UNIPROT","docType":"UNIPROT","publicDomain":false,"tags":["NOMEN"],"access":["protected"],"_self":"/ginas/app/api/v1/references(cb4de064-7db6-4c33-8152-1baae15f7dd3)?view\u003dfull"},{"uuid":"7349b27a-c3f8-4294-8002-02f285edb70c","created":1493464337170,"createdBy":"RAMEZ.GHAZZAOUI","lastEdited":1493464337170,"lastEditedBy":"RAMEZ.GHAZZAOUI","deprecated":false,"citation":"1103577AA","docType":"BDNUM","publicDomain":false,"tags":["NOMEN"],"access":["protected"],"_self":"/ginas/app/api/v1/references(7349b27a-c3f8-4294-8002-02f285edb70c)?view\u003dfull"},{"uuid":"2a97bd5c-6a52-47c4-adca-2e5e233ec65f","created":1493464337169,"createdBy":"RAMEZ.GHAZZAOUI","lastEdited":1493464337169,"lastEditedBy":"RAMEZ.GHAZZAOUI","deprecated":false,"citation":"FDA_SRS","docType":"SRS","publicDomain":true,"tags":["NOMEN","PUBLIC_DOMAIN_RELEASE","AUTO_SELECTED"],"access":[],"_self":"/ginas/app/api/v1/references(2a97bd5c-6a52-47c4-adca-2e5e233ec65f)?view\u003dfull"}],"approvalID":"0192074X0K","tags":[],"protein":{"uuid":"2589910b-9b62-4447-a0f5-86267f9baf26","created":1493464337144,"createdBy":"RAMEZ.GHAZZAOUI","lastEdited":1493464337144,"lastEditedBy":"RAMEZ.GHAZZAOUI","deprecated":false,"sequenceType":"COMPLETE","glycosylation":{"uuid":"0607d6cc-54db-43e5-a881-49c65ba8feea","created":1493464337130,"createdBy":"RAMEZ.GHAZZAOUI","lastEdited":1493464337130,"lastEditedBy":"RAMEZ.GHAZZAOUI","deprecated":false,"NGlycosylationSites":[],"OGlycosylationSites":[],"CGlycosylationSites":[],"references":[],"access":[]},"subunits":[{"uuid":"5bd303dc-fbd9-4fed-8d5f-bd11f006be4f","created":1493464337146,"createdBy":"RAMEZ.GHAZZAOUI","lastEdited":1493464337146,"lastEditedBy":"RAMEZ.GHAZZAOUI","deprecated":false,"sequence":"KVTLPDLKWDFGALEPYISGQINELHYTKHHQTYVNGFNTAVDQFQELSDLLAKEPSPANARKMIAIQQNIKFHGGGFTNHCLFWENLAPESQGGGEPPTGALAKAIDEQFGSLDELIKLTNTKLAGVQGSGWAFIVKNLSNGGKLDVVQTYNQDTVTGPLVPLVAIDAWEHAYYLQYQNKKADYFKAIWNVVNWKEASRRFDAGKI","subunitIndex":1,"length":207.0,"references":[],"access":[]},{"uuid":"80244dd6-a1d1-4ec2-9c16-931af48d4b08","created":1493464337147,"createdBy":"RAMEZ.GHAZZAOUI","lastEdited":1493464337147,"lastEditedBy":"RAMEZ.GHAZZAOUI","deprecated":false,"sequence":"KVTLPDLKWDFGALEPYISGQINELHYTKHHQTYVNGFNTAVDQFQELSDLLAKEPSPANARKMIAIQQNIKFHGGGFTNHCLFWENLAPESQGGGEPPTGALAKAIDEQFGSLDELIKLTNTKLAGVQGSGWAFIVKNLSNGGKLDVVQTYNQDTVTGPLVPLVAIDAWEHAYYLQYQNKKADYFKAIWNVVNWKEASRRFDAGKI","subunitIndex":2,"length":207.0,"references":[],"access":[]},{"uuid":"d2183305-d65d-4392-a750-f2821b8ba10d","created":1493464337147,"createdBy":"RAMEZ.GHAZZAOUI","lastEdited":1493464337147,"lastEditedBy":"RAMEZ.GHAZZAOUI","deprecated":false,"sequence":"KVTLPDLKWDFGALEPYISGQINELHYTKHHQTYVNGFNTAVDQFQELSDLLAKEPSPANARKMIAIQQNIKFHGGGFTNHCLFWENLAPESQGGGEPPTGALAKAIDEQFGSLDELIKLTNTKLAGVQGSGWAFIVKNLSNGGKLDVVQTYNQDTVTGPLVPLVAIDAWEHAYYLQYQNKKADYFKAIWNVVNWKEASRRFDAGKI","subunitIndex":3,"length":207.0,"references":[],"access":[]},{"uuid":"c0184666-2c29-46e9-9c14-81692ead7cd9","created":1493464337148,"createdBy":"RAMEZ.GHAZZAOUI","lastEdited":1493464337148,"lastEditedBy":"RAMEZ.GHAZZAOUI","deprecated":false,"sequence":"KVTLPDLKWDFGALEPYISGQINELHYTKHHQTYVNGFNTAVDQFQELSDLLAKEPSPANARKMIAIQQNIKFHGGGFTNHCLFWENLAPESQGGGEPPTGALAKAIDEQFGSLDELIKLTNTKLAGVQGSGWAFIVKNLSNGGKLDVVQTYNQDTVTGPLVPLVAIDAWEHAYYLQYQNKKADYFKAIWNVVNWKEASRRFDAGKI","subunitIndex":4,"length":207.0,"references":[],"access":[]}],"otherLinks":[{"uuid":"b78b048a-c03e-4c0c-8627-cc5867149aca","created":1493464337151,"createdBy":"RAMEZ.GHAZZAOUI","lastEdited":1493464337151,"lastEditedBy":"RAMEZ.GHAZZAOUI","deprecated":false,"linkageType":"COORDINATION COMPOUND","sites":[{"subunitIndex":1,"residueIndex":26},{"subunitIndex":1,"residueIndex":81}],"references":[],"access":[]},{"uuid":"fad6cf16-1459-453d-8423-feac60a7bba2","created":1493464337153,"createdBy":"RAMEZ.GHAZZAOUI","lastEdited":1493464337153,"lastEditedBy":"RAMEZ.GHAZZAOUI","deprecated":false,"linkageType":"COORDINATION COMPOUND","sites":[{"subunitIndex":2,"residueIndex":26},{"subunitIndex":2,"residueIndex":81}],"references":[],"access":[]},{"uuid":"5a0ed744-d239-4802-a24e-f33de48eae14","created":1493464337154,"createdBy":"RAMEZ.GHAZZAOUI","lastEdited":1493464337154,"lastEditedBy":"RAMEZ.GHAZZAOUI","deprecated":false,"linkageType":"COORDINATION COMPOUND","sites":[{"subunitIndex":3,"residueIndex":26},{"subunitIndex":3,"residueIndex":81}],"references":[],"access":[]},{"uuid":"c19187a9-e1e0-4db0-8755-02885aba25b0","created":1493464337155,"createdBy":"RAMEZ.GHAZZAOUI","lastEdited":1493464337155,"lastEditedBy":"RAMEZ.GHAZZAOUI","deprecated":false,"linkageType":"COORDINATION COMPOUND","sites":[{"subunitIndex":4,"residueIndex":26},{"subunitIndex":4,"residueIndex":81}],"references":[],"access":[]}],"disulfideLinks":[],"references":["a5448d47-9c12-4431-9bb8-0e688fc7b0d8","41d0fc09-2647-4fc2-a939-19120d74f232"],"access":[]},"_name":"SUPEROXIDE DISMUTASE (MN) SACCHAROMYCES CEREVISIAE","_approvalIDDisplay":"0192074X0K","access":[],"_self":"/ginas/app/api/v1/substances(6846c9a0-aad4-4ff3-b6b6-f83b4548dcbb)?view\u003dfull"}

>  <DESC_PART1>
<PROTEIN>
 <SEQUENCE_TYPE>COMPLETE</SEQUENCE_TYPE>
 <NUMBER_OF_SUBUNITS>4</NUMBER_OF_SUBUNITS>
<SUBUNIT_GROUP>
 <SUBUNIT>1</SUBUNIT>
 <LENGTH>207</LENGTH>
 <SEQUENCE>KVTLPDLKWDFGALEPYISGQINELHYTKHHQTYVNGFNTAVDQFQELSDLLAKEPSPANARKMIAIQQNIKFHGGGFTNHCLFWENLAPESQGGGEPPTGALAKAIDEQFGSLDELIKLTNTKLAGVQGSGWAFIVKNLSNGGKLDVVQTYNQDTVTGPLVPLVAIDAWEHAYYLQYQNKKADYFKAIWNVVNWKEASRRFDAGKI</SEQUENCE>
 </SUBUNIT_GROUP>
<SUBUNIT_GROUP>
 <SUBUNIT>2</SUBUNIT>
 <LENGTH>207</LENGTH>
 <SEQUENCE>KVTLPDLKWDFGALEPYISGQINELHYTKHHQTYVNGFNTAVDQFQELSDLLAKEPSPANARKMIAIQQNIKFHGGGFTNHCLFWENLAPESQGGGEPPTGALAKAIDEQFGSLDELIKLTNTKLAGVQGSGWAFIVKNLSNGGKLDVVQTYNQDTVTGPLVPLVAIDAWEHAYYLQYQNKKADYFKAIWNVVNWKEASRRFDAGKI</SEQUENCE>
 </SUBUNIT_GROUP>
<SUBUNIT_GROUP>
 <SUBUNIT>3</SUBUNIT>
 <LENGTH>207</LENGTH>
 <SEQUENCE>KVTLPDLKWDFGALEPYISGQINELHYTKHHQTYVNGFNTAVDQFQELSDLLAKEPSPANARKMIAIQQNIKFHGGGFTNHCLFWENLAPESQGGGEPPTGALAKAIDEQFGSLDELIKLTNTKLAGVQGSGWAFIVKNLSNGGKLDVVQTYNQDTVTGPLVPLVAIDAWEHAYYLQYQNKKADYFKAIWNVVNWKEASRRFDAGKI</SEQUENCE>
 </SUBUNIT_GROUP>
<SUBUNIT_GROUP>
 <SUBUNIT>4</SUBUNIT>
 <LENGTH>207</LENGTH>
 <SEQUENCE>KVTLPDLKWDFGALEPYISGQINELHYTKHHQTYVNGFNTAVDQFQELSDLLAKEPSPANARKMIAIQQNIKFHGGGFTNHCLFWENLAPESQGGGEPPTGALAKAIDEQFGSLDELIKLTNTKLAGVQGSGWAFIVKNLSNGGKLDVVQTYNQDTVTGPLVPLVAIDAWEHAYYLQYQNKKADYFKAIWNVVNWKEASRRFDAGKI</SEQUENCE>
 </SUBUNIT_GROUP>
 <DISULFIDE_LINKAGE/>
<OTHER_LINKAGE>
 <SITE>1_26-1_81-1_168-1_172; 2_26-2_81-2_168-2_172; 3_26-3_81-3_168-3_172; 4_26-4_81-4_168-4_172;</SITE>
 <LINKAGE_TYPE>COORDINATION COMPOUND</LINKAGE_TYPE>
 </OTHER_LINKAGE>
<GLYCOSYLATION>
 <GLYCOSYLATION_TYPE/>
 <N_GLYCOSYLATION/>
 <O_GLYCOSYLATION/>
 <C_GLYCOSYLATION/>
 </GLYCOSYLATION>
<MODIFICATION_GROUP>
<PHYSICAL_MODIFICATION_GROUP>
 <ROLE/>
 <NUMBER_OF_PARAMETERS/>
<PARAMETER_GROUP>
 <PARAMETER/>
<AMOUNT>
 <AVERAGE/>
 <LOW_LIMIT/>
 <HIGH_LIMIT/>
 <UNIT/>
 <NON_NUMERIC_VALUE/>
 </AMOUNT>
 </PARAMETER_GROUP>
 </PHYSICAL_MODIFICATION_GROUP>
<AGENT_MODIFICATION_GROUP>
 <AGENT_MODIFICATION_TYPE/>
 <ROLE/>
 <MODIFICATION_AGENT/>
 <MODIFICATION_AGENT_ID/>
 <MODIFICATION_PROCESS/>
 <AMOUNT_TYPE/>
<AMOUNT>
 <AVERAGE/>
 <LOW_LIMIT/>
 <HIGH_LIMIT/>
 <UNIT/>
 <NON_NUMERIC_VALUE/>
 </AMOUNT>
 </AGENT_MODIFICATION_GROUP>
<STRUCTURAL_MODIFICATION_GROUP>
 <RESIDUE_MODIFIED>THR</RESIDUE_MODIFIED>
 <RESIDUE_SITE>1_121; 1_123; 2_121; 2_123; 3_121; 3_123; 4_121; 4_123</RESIDUE_SITE>
 <NUMBER_OF_FRAGMENTS_MOIETIES/>
 <AMOUNT_TYPE/>
<MOLECULAR_FRAGMENT_MOIETY>
 <STRUCTURAL_MODIFICATION_TYPE>AMINO ACID SUBSTITUTION</STRUCTURAL_MODIFICATION_TYPE>
 <ROLE>PHOSPHORYLATION</ROLE>
 <FRAGMENT_NUMBER/>
 <MOLECULAR_FRAGMENT_NAME>Phosphothreonine</MOLECULAR_FRAGMENT_NAME>
 <MOLECULAR_FRAGMENT_ID>3L4WX7B1EI</MOLECULAR_FRAGMENT_ID>
 <MOLECULAR_FRAGMENT_INCHI/>
 <FRAGMENT_CONNECTIVTY>9; 6</FRAGMENT_CONNECTIVTY>
<AMOUNT>
 <AVERAGE/>
 <LOW_LIMIT/>
 <HIGH_LIMIT/>
 <UNIT/>
 <NON_NUMERIC_VALUE/>
 </AMOUNT>
 <MOLFILE> ACCLDraw07181414432D 13 12 0 0 1 0 0 0 0 0999 V2000 5.7696 -3.3313 0.0000 O 0 0 0 0 0 0 0 0 0 0 0 0 6.6286 -4.1418 0.0000 P 0 0 3 0 0 0 0 0 0 0 0 0 7.6339 -3.5218 0.0000 O 0 0 0 0 0 0 0 0 0 0 0 0 8.6735 -4.0824 0.0000 C 0 0 1 0 0 0 0 0 0 0 0 0 8.7078 -5.2630 0.0000 C 0 0 1 0 0 0 0 0 0 0 0 0 9.7474 -5.8236 0.0000 C 0 0 0 0 0 0 0 0 0 0 0 0 9.7817 -7.0042 0.0000 O 0 0 0 0 0 0 0 0 0 0 0 0 10.7527 -5.2036 0.0000 O 0 0 0 0 0 0 0 0 0 0 0 0 7.7025 -5.8830 0.0000N 0 0 0 0 0 0 0 0 0 0 0 0 9.6788 -3.4624 0.0000 C 0 0 0 0 0 0 0 0 0 0 0 0 10.7184 -4.0230 0.0000 C 0 0 0 0 0 0 0 0 0 0 0 0 5.4794 -3.8694 0.0000 O 0 0 0 0 0 0 0 0 0 0 0 0 6.6629 -5.3224 0.0000 O 0 0 0 0 0 0 0 0 0 0 0 0 1 2 1 0 0 0 0 2 3 1 0 0 0 0 4 3 1 6 0 0 0 4 5 1 0 0 0 0 5 6 1 1 0 0 0 6 7 1 0 0 0 0 6 8 2 0 0 0 0 5 9 1 0 0 0 0 4 10 1 0 0 0 0 10 11 1 0 0 0 0 2 12 1 0 0 0 0 2 13 2 0 0 0 0 M END </MOLFILE>
 </MOLECULAR_FRAGMENT_MOIETY>
 </STRUCTURAL_MODIFICATION_GROUP>
<STRUCTURAL_MODIFICATION_GROUP>
 <RESIDUE_MODIFIED>His</RESIDUE_MODIFIED>
 <RESIDUE_SITE>1_26; 2_26; 3_26; 4_26</RESIDUE_SITE>
 <NUMBER_OF_FRAGMENTS_MOIETIES/>
 <AMOUNT_TYPE/>
<MOLECULAR_FRAGMENT_MOIETY>
 <STRUCTURAL_MODIFICATION_TYPE/>
 <ROLE>AMINO ACID SUBSTITUTION</ROLE>
 <FRAGMENT_NUMBER/>
 <MOLECULAR_FRAGMENT_NAME/>
 <MOLECULAR_FRAGMENT_ID/>
 <MOLECULAR_FRAGMENT_INCHI/>
 <MOLFILE external="1"/>
 <FRAGMENT_CONNECTIVTY>13; 12</FRAGMENT_CONNECTIVTY>
<AMOUNT>
 <AVERAGE/>
 <LOW_LIMIT/>
 <HIGH_LIMIT/>
 <UNIT/>
 <NON_NUMERIC_VALUE/>
 </AMOUNT>
 </MOLECULAR_FRAGMENT_MOIETY>
 </STRUCTURAL_MODIFICATION_GROUP>
<STRUCTURAL_MODIFICATION_GROUP>
 <RESIDUE_MODIFIED>His</RESIDUE_MODIFIED>
 <RESIDUE_SITE>1_81; 2_81; 3_81; 4_81</RESIDUE_SITE>
 <NUMBER_OF_FRAGMENTS_MOIETIES/>
 <AMOUNT_TYPE/>
<MOLECULAR_FRAGMENT_MOIETY>
 <STRUCTURAL_MODIFICATION_TYPE/>
 <ROLE>AMINO ACID SUBSTITUTION</ROLE>
 <FRAGMENT_NUMBER/>
 <MOLECULAR_FRAGMENT_NAME/>
 <MOLECULAR_FRAGMENT_ID/>
 <MOLECULAR_FRAGMENT_INCHI/>
 <MOLFILE external="1"/>
 <FRAGMENT_CONNECTIVTY>23; 22</FRAGMENT_CONNECTIVTY>
<AMOUNT>
 <AVERAGE/>
 <LOW_LIMIT/>
 <HIGH_LIMIT/>
 <UNIT/>
 <NON_NUMERIC_VALUE/>
 </AMOUNT>
 </MOLECULAR_FRAGMENT_MOIETY>
 </STRUCTURAL_MODIFICATION_GROUP>
<STRUCTURAL_MODIFICATION_GROUP>
 <RESIDUE_MODIFIED>Asp</RESIDUE_MODIFIED>
 <RESIDUE_SITE>1_168; 2_168; 3_168; 4_168</RESIDUE_SITE>
 <NUMBER_OF_FRAGMENTS_MOIETIES/>
 <AMOUNT_TYPE/>
<MOLECULAR_FRAGMENT_MOIETY>
 <STRUCTURAL_MODIFICATION_TYPE/>
 <ROLE>AMINO ACID SUBSTITUTION</ROLE>
 <FRAGMENT_NUMBER/>
 <MOLECULAR_FRAGMENT_NAME/>
 <MOLECULAR_FRAGMENT_ID/>
 <MOLECULAR_FRAGMENT_INCHI/>
 <MOLFILE external="1"/>
 <FRAGMENT_CONNECTIVTY>30; 33</FRAGMENT_CONNECTIVTY>
<AMOUNT>
 <AVERAGE/>
 <LOW_LIMIT/>
 <HIGH_LIMIT/>
 <UNIT/>
 <NON_NUMERIC_VALUE/>
 </AMOUNT>
 </MOLECULAR_FRAGMENT_MOIETY>
 </STRUCTURAL_MODIFICATION_GROUP>
<STRUCTURAL_MODIFICATION_GROUP>
 <RESIDUE_MODIFIED>His</RESIDUE_MODIFIED>
 <RESIDUE_SITE>1_172; 2_172; 3_172; 4_172</RESIDUE_SITE>
 <NUMBER_OF_FRAGMENTS_MOIETIES/>
 <AMOUNT_TYPE/>
<MOLECULAR_FRAGMENT_MOIETY>
 <STRUCTURAL_MODIFICATION_TYPE/>
 <ROLE>AMINO ACID SUBSTITUTION</ROLE>
 <FRAGMENT_NUMBER/>
 <MOLECULAR_FRAGMENT_NAME/>
 <MOLECULAR_FRAGMENT_ID/>
 <MOLECULAR_FRAGMENT_INCHI/>
 <MOLFILE external="1"/>
 <FRAGMENT_CONNECTIVTY>41; 40</FRAGMENT_CONNECTIVTY>
<AMOUNT>
 <AVERAGE/>
 <LOW_LIMIT/>
 <HIGH_LIMIT/>
 <UNIT/>
 <NON_NUMERIC_VALUE/>
 </AMOUNT>
 </MOLECULAR_FRAGMENT_MOIETY>
 </STRUCTURAL_MODIFICATION_GROUP>
 </MODIFICATION_GROUP>
<PROPERTY_GROUP>
 <PROPERTY_TYPE/>
 <PROPERTY/>
<PROPERTY_DESCRIPTION>
 <SUBSTANCE_NAME/>
 <SUBSTANCE_ID/>
 <SUBSTANCE_ID/>
 <AMOUNT_TYPE/>
<AMOUNT>
 <AVERAGE/>
 <LOW_LIMIT/>
 <HIGH_LIMIT/>
 <UNIT/>
 <NON_NUMERIC_VALUE/>
 </AMOUNT>
 </PROPERTY_DESCRIPTION>
 </PROPERTY_GROUP>
<MOLECULAR_WEIGHT>
 <MOLECULAR_WEIGHT_TYPE/>
 <MOLECULAR_WEIGHT_METHOD/>
<AMOUNT>
 <AVERAGE/>
 <LOW_LIMIT/>
 <HIGH_LIMIT/>
 <UNIT/>
 <NON_NUMERIC_VALUE/>
 </AMOUNT>
 </MOLECULAR_WEIGHT>
 <COMMENTS/>
 <PUBLIC_DOMAIN/>
 </PROTEIN>

>  <STRUCTURE_ID>
f210f60f-6564-331c-ac98-191f6eb012fe

>  <UNII>
0192074X0K

>  <SUBSTANCE_ID>
6846c9a0-aad4-4ff3-b6b6-f83b4548dcbb

>  <COMMENTS>


>  <REF_INFO_PART1>


$$$$