
  Symyx   06031522062D 1   1.00000     0.00000     0

222232  0     1  0            999 V2000
   11.6012   -5.6576    0.0000 O   0  0  0  0  0  0           0  0  0
   10.5663   -6.2268    0.0000 C   0  0  0  0  0  0           0  0  0
    9.5559   -5.6151    0.0000 C   0  0  0  0  0  0           0  0  0
    9.5804   -4.4343    0.0000 C   0  0  0  0  0  0           0  0  0
    9.6049   -3.2534    0.0000 C   0  0  0  0  0  0           0  0  0
   10.6398   -2.6842    0.0000 C   0  0  0  0  0  0           0  0  0
   10.6643   -1.5034    0.0000 C   0  0  0  0  0  0           0  0  0
    9.6539   -0.8917    0.0000 C   0  0  0  0  0  0           0  0  0
    8.6190   -1.4610    0.0000 C   0  0  0  0  0  0           0  0  0
    8.5945   -2.6418    0.0000 C   0  0  0  0  0  0           0  0  0
    7.5596   -3.2110    0.0000 O   0  0  0  0  0  0           0  0  0
    6.5492   -2.5994    0.0000 H   0  0  0  0  0  0           0  0  0
    7.6086   -0.8493    0.0000 C   0  0  0  0  0  0           0  0  0
    7.6331    0.3315    0.0000 O   0  0  0  0  0  0           0  0  0
    6.6227    0.9432    0.0000 H   0  0  0  0  0  0           0  0  0
    6.5737   -1.4185    0.0000 O   0  0  0  0  0  0           0  0  0
    9.6784    0.2891    0.0000 H   0  0  0  0  0  0           0  0  0
   11.6992   -0.9342    0.0000 C   0  0  0  0  0  0           0  0  0
   12.7096   -1.5458    0.0000 C   0  0  0  0  0  0           0  0  0
   12.6851   -2.7267    0.0000 C   0  0  0  0  0  0           0  0  0
   11.6502   -3.2959    0.0000 C   0  0  0  0  0  0           0  0  0
   11.6257   -4.4767    0.0000 H   0  0  0  0  0  0           0  0  0
   13.6955   -3.3383    0.0000 H   0  0  0  0  0  0           0  0  0
   13.7445   -0.9766    0.0000 H   0  0  0  0  0  0           0  0  0
   11.7237    0.2467    0.0000 H   0  0  0  0  0  0           0  0  0
   10.7612   -4.4588    0.0000 H   0  0  0  0  0  0           0  0  0
    8.3995   -4.4098    0.0000 H   0  0  0  0  0  0           0  0  0
    8.5210   -6.1844    0.0000 C   0  0  0  0  0  0           0  0  0
    8.4965   -7.3652    0.0000 C   0  0  0  0  0  0           0  0  0
    9.5069   -7.9768    0.0000 C   0  0  0  0  0  0           0  0  0
   10.5418   -7.4076    0.0000 C   0  0  0  0  0  0           0  0  0
   11.5522   -8.0193    0.0000 C   0  0  0  0  0  0           0  0  0
   11.5277   -9.2001    0.0000 O   0  0  0  0  0  0           0  0  0
   12.5381   -9.8118    0.0000 H   0  0  0  0  0  0           0  0  0
   12.5871   -7.4501    0.0000 O   0  0  0  0  0  0           0  0  0
    9.4824   -9.1577    0.0000 H   0  0  0  0  0  0           0  0  0
    7.4616   -7.9344    0.0000 C   0  0  0  0  0  0           0  0  0
    6.4512   -7.3228    0.0000 C   0  0  0  0  0  0           0  0  0
    6.4757   -6.1419    0.0000 C   0  0  0  0  0  0           0  0  0
    7.5106   -5.5727    0.0000 C   0  0  0  0  0  0           0  0  0
    7.5351   -4.3919    0.0000 H   0  0  0  0  0  0           0  0  0
    5.4653   -5.5303    0.0000 H   0  0  0  0  0  0           0  0  0
    5.4163   -7.8920    0.0000 H   0  0  0  0  0  0           0  0  0
    7.4371   -9.1153    0.0000 H   0  0  0  0  0  0           0  0  0
   12.6116   -6.2692    0.0000 H   0  0  0  0  0  0           0  0  0
   15.1605  -26.2188    0.0000 O   0  0  0  0  0  0           0  0  0
   15.7150  -25.1759    0.0000 C   0  0  0  0  0  0           0  0  0
   16.8954  -25.1347    0.0000 N   0  0  3  0  0  0           0  0  0
   17.6225  -26.0654    0.0000 C   0  0  1  0  0  0           0  0  0
   18.7324  -25.6615    0.0000 C   0  0  0  0  0  0           0  0  0
   18.6912  -24.4811    0.0000 C   0  0  0  0  0  0           0  0  0
   17.5558  -24.1555    0.0000 C   0  0  0  0  0  0           0  0  0
   17.9983  -23.0605    0.0000 H   0  0  0  0  0  0           0  0  0
   16.5130  -23.6011    0.0000 H   0  0  0  0  0  0           0  0  0
   19.8694  -24.5635    0.0000 H   0  0  0  0  0  0           0  0  0
   18.8963  -23.3179    0.0000 H   0  0  0  0  0  0           0  0  0
   19.0182  -26.8075    0.0000 H   0  0  0  0  0  0           0  0  0
   19.9020  -25.4971    0.0000 H   0  0  0  0  0  0           0  0  0
   17.9481  -27.2008    0.0000 C   0  0  0  0  0  0           0  0  0
   19.0941  -27.4865    0.0000 O   0  0  0  0  0  0           0  0  0
   17.1276  -28.0504    0.0000 N   0  0  0  0  0  0           0  0  0
   17.4532  -29.1857    0.0000 C   0  0  0  0  0  0           0  0  0
   16.6327  -30.0354    0.0000 C   0  0  0  0  0  0           0  0  0
   15.4867  -29.7496    0.0000 O   0  0  0  0  0  0           0  0  0
   16.9583  -31.1707    0.0000 N   0  0  0  0  0  0           0  0  0
   16.1378  -32.0203    0.0000 H   0  0  0  0  0  0           0  0  0
   18.1043  -31.4564    0.0000 H   0  0  0  0  0  0           0  0  0
   18.5885  -28.8602    0.0000 H   0  0  0  0  0  0           0  0  0
   18.3028  -30.0062    0.0000 H   0  0  0  0  0  0           0  0  0
   15.9816  -27.7646    0.0000 H   0  0  0  0  0  0           0  0  0
   16.6209  -26.6913    0.0000 H   0  0  0  0  0  0           0  0  0
   15.0891  -24.1743    0.0000 C   0  0  1  0  0  0           0  0  0
   13.9087  -24.2155    0.0000 N   0  0  0  0  0  0           0  0  0
   13.3542  -25.2584    0.0000 C   0  0  0  0  0  0           0  0  0
   13.9801  -26.2600    0.0000 O   0  0  0  0  0  0           0  0  0
   12.1738  -25.2996    0.0000 C   0  0  1  0  0  0           0  0  0
   11.3835  -24.4219    0.0000 N   0  0  0  0  0  0           0  0  0
   10.2282  -24.6674    0.0000 C   0  0  0  0  0  0           0  0  0
    9.8633  -25.7907    0.0000 O   0  0  0  0  0  0           0  0  0
    9.4379  -23.7897    0.0000 C   0  0  2  0  0  0           0  0  0
    9.8029  -22.6664    0.0000 N   0  0  0  0  0  0           0  0  0
    9.0126  -21.7887    0.0000 C   0  0  0  0  0  0           0  0  0
    7.8573  -22.0343    0.0000 O   0  0  0  0  0  0           0  0  0
    9.3776  -20.6654    0.0000 C   0  0  1  0  0  0           0  0  0
    8.5873  -19.7877    0.0000 N   0  0  0  0  0  0           0  0  0
    7.4320  -20.0332    0.0000 C   0  0  0  0  0  0           0  0  0
    7.0670  -21.1565    0.0000 O   0  0  0  0  0  0           0  0  0
    6.6417  -19.1555    0.0000 C   0  0  1  0  0  0           0  0  0
    7.0066  -18.0322    0.0000 N   0  0  0  0  0  0           0  0  0
    6.2163  -17.1545    0.0000 C   0  0  0  0  0  0           0  0  0
    5.0611  -17.4001    0.0000 O   0  0  0  0  0  0           0  0  0
    6.5813  -16.0312    0.0000 C   0  0  1  0  0  0           0  0  0
    5.7910  -15.1535    0.0000 N   0  0  0  0  0  0           0  0  0
    4.6357  -15.3991    0.0000 C   0  0  0  0  0  0           0  0  0
    4.2707  -16.5224    0.0000 O   0  0  0  0  0  0           0  0  0
    3.8454  -14.5214    0.0000 C   0  0  1  0  0  0           0  0  0
    2.6901  -14.7669    0.0000 N   0  0  0  0  0  0           0  0  0
    2.3252  -15.8902    0.0000 C   0  0  0  0  0  0           0  0  0
    3.1155  -16.7679    0.0000 O   0  0  0  0  0  0           0  0  0
    1.1555  -15.7258    0.0000 C   0  0  1  0  0  0           0  0  0
    0.0457  -15.3219    0.0000 N   0  0  0  0  0  0           0  0  0
   -0.6815  -16.2526    0.0000 C   0  0  0  0  0  0           0  0  0
   -1.8618  -16.2114    0.0000 O   0  0  0  0  0  0           0  0  0
   -0.0210  -17.2318    0.0000 C   0  0  0  0  0  0           0  0  0
    1.1143  -16.9062    0.0000 C   0  0  0  0  0  0           0  0  0
    2.2926  -16.8238    0.0000 H   0  0  0  0  0  0           0  0  0
    1.3194  -18.0694    0.0000 H   0  0  0  0  0  0           0  0  0
    0.4214  -18.3269    0.0000 H   0  0  0  0  0  0           0  0  0
   -1.0639  -17.7863    0.0000 H   0  0  0  0  0  0           0  0  0
   -0.2799  -14.1866    0.0000 H   0  0  0  0  0  0           0  0  0
    1.4413  -14.5798    0.0000 H   0  0  0  0  0  0           0  0  0
    1.8998  -13.8892    0.0000 H   0  0  0  0  0  0           0  0  0
    4.2104  -13.3981    0.0000 C   0  0  0  0  0  0           0  0  0
    3.4201  -12.5203    0.0000 C   0  0  0  0  0  0           0  0  0
    3.6656  -11.3650    0.0000 N   0  0  0  0  0  0           0  0  0
    2.6428  -10.7745    0.0000 C   0  0  0  0  0  0           0  0  0
    1.7651  -11.5648    0.0000 N   0  0  0  0  0  0           0  0  0
    2.2455  -12.6438    0.0000 C   0  0  0  0  0  0           0  0  0
    1.6549  -13.6667    0.0000 H   0  0  0  0  0  0           0  0  0
    2.5193   -9.5999    0.0000 H   0  0  0  0  0  0           0  0  0
    4.7446  -10.8846    0.0000 H   0  0  0  0  0  0           0  0  0
    5.3337  -13.7630    0.0000 H   0  0  0  0  0  0           0  0  0
    5.0881  -12.6077    0.0000 H   0  0  0  0  0  0           0  0  0
    3.4804  -15.6446    0.0000 H   0  0  0  0  0  0           0  0  0
    6.1560  -14.0302    0.0000 H   0  0  0  0  0  0           0  0  0
    7.7366  -15.7857    0.0000 C   0  0  0  0  0  0           0  0  0
    7.9010  -14.6161    0.0000 C   0  0  0  0  0  0           0  0  0
    8.9438  -14.0616    0.0000 C   0  0  0  0  0  0           0  0  0
    8.7387  -12.8984    0.0000 C   0  0  0  0  0  0           0  0  0
    7.5691  -12.7340    0.0000 N   0  0  0  0  0  0           0  0  0
    7.0513  -13.7956    0.0000 C   0  0  0  0  0  0           0  0  0
    5.8882  -14.0007    0.0000 H   0  0  0  0  0  0           0  0  0
    7.0146  -11.6912    0.0000 H   0  0  0  0  0  0           0  0  0
    9.6435  -12.1392    0.0000 C   0  0  0  0  0  0           0  0  0
   10.7533  -12.5431    0.0000 C   0  0  0  0  0  0           0  0  0
   10.9584  -13.7063    0.0000 C   0  0  0  0  0  0           0  0  0
   10.0537  -14.4655    0.0000 C   0  0  0  0  0  0           0  0  0
   10.2588  -15.6286    0.0000 H   0  0  0  0  0  0           0  0  0
   12.0683  -14.1102    0.0000 H   0  0  0  0  0  0           0  0  0
   11.6581  -11.7839    0.0000 H   0  0  0  0  0  0           0  0  0
    9.4384  -10.9760    0.0000 H   0  0  0  0  0  0           0  0  0
    7.9822  -16.9409    0.0000 H   0  0  0  0  0  0           0  0  0
    8.8599  -16.1506    0.0000 H   0  0  0  0  0  0           0  0  0
    5.4260  -16.2768    0.0000 H   0  0  0  0  0  0           0  0  0
    8.1619  -17.7867    0.0000 H   0  0  0  0  0  0           0  0  0
    5.4864  -19.4011    0.0000 C   0  0  0  0  0  0           0  0  0
    5.1214  -20.5244    0.0000 O   0  0  0  0  0  0           0  0  0
    5.9117  -21.4021    0.0000 H   0  0  0  0  0  0           0  0  0
    5.2408  -18.2458    0.0000 H   0  0  0  0  0  0           0  0  0
    4.3631  -19.0361    0.0000 H   0  0  0  0  0  0           0  0  0
    5.8514  -18.2778    0.0000 H   0  0  0  0  0  0           0  0  0
    8.9522  -18.6644    0.0000 H   0  0  0  0  0  0           0  0  0
   10.5329  -20.4198    0.0000 C   0  0  0  0  0  0           0  0  0
   10.8978  -19.2965    0.0000 C   0  0  0  0  0  0           0  0  0
   10.1075  -18.4188    0.0000 C   0  0  0  0  0  0           0  0  0
   10.4725  -17.2955    0.0000 C   0  0  0  0  0  0           0  0  0
   11.6278  -17.0500    0.0000 C   0  0  0  0  0  0           0  0  0
   11.9928  -15.9267    0.0000 O   0  0  0  0  0  0           0  0  0
   11.2025  -15.0489    0.0000 H   0  0  0  0  0  0           0  0  0
   12.4181  -17.9277    0.0000 C   0  0  0  0  0  0           0  0  0
   12.0531  -19.0510    0.0000 C   0  0  0  0  0  0           0  0  0
   12.8434  -19.9287    0.0000 H   0  0  0  0  0  0           0  0  0
   13.5734  -17.6821    0.0000 H   0  0  0  0  0  0           0  0  0
    9.6822  -16.4178    0.0000 H   0  0  0  0  0  0           0  0  0
    8.9522  -18.6644    0.0000 H   0  0  0  0  0  0           0  0  0
   10.7784  -21.5751    0.0000 H   0  0  0  0  0  0           0  0  0
   11.6561  -20.7848    0.0000 H   0  0  0  0  0  0           0  0  0
    9.7425  -19.5421    0.0000 H   0  0  0  0  0  0           0  0  0
   10.9582  -22.4209    0.0000 H   0  0  0  0  0  0           0  0  0
    8.2826  -24.0353    0.0000 C   0  0  0  0  0  0           0  0  0
    7.9177  -25.1586    0.0000 C   0  0  0  0  0  0           0  0  0
    6.7944  -25.5236    0.0000 C   0  0  0  0  0  0           0  0  0
    6.7944  -26.7046    0.0000 C   0  0  0  0  0  0           0  0  0
    7.9177  -27.0696    0.0000 N   0  0  0  0  0  0           0  0  0
    8.6119  -26.1141    0.0000 C   0  0  0  0  0  0           0  0  0
    9.7930  -26.1141    0.0000 H   0  0  0  0  0  0           0  0  0
    8.2827  -28.1929    0.0000 H   0  0  0  0  0  0           0  0  0
    5.7715  -27.2952    0.0000 C   0  0  0  0  0  0           0  0  0
    4.7487  -26.7046    0.0000 C   0  0  0  0  0  0           0  0  0
    4.7487  -25.5235    0.0000 C   0  0  0  0  0  0           0  0  0
    5.7715  -24.9330    0.0000 C   0  0  0  0  0  0           0  0  0
    5.7715  -23.7519    0.0000 H   0  0  0  0  0  0           0  0  0
    3.7258  -24.9330    0.0000 H   0  0  0  0  0  0           0  0  0
    3.7258  -27.2952    0.0000 H   0  0  0  0  0  0           0  0  0
    5.7715  -28.4763    0.0000 H   0  0  0  0  0  0           0  0  0
    8.0371  -22.8800    0.0000 H   0  0  0  0  0  0           0  0  0
    7.1594  -23.6703    0.0000 H   0  0  0  0  0  0           0  0  0
    8.6476  -22.9120    0.0000 H   0  0  0  0  0  0           0  0  0
   11.7485  -23.2986    0.0000 H   0  0  0  0  0  0           0  0  0
   12.0095  -26.4692    0.0000 C   0  0  0  0  0  0           0  0  0
   11.8451  -27.6388    0.0000 C   0  0  3  0  0  0           0  0  0
   12.7758  -28.3660    0.0000 C   0  0  0  0  0  0           0  0  0
   13.5030  -27.4352    0.0000 H   0  0  0  0  0  0           0  0  0
   13.7065  -29.0931    0.0000 H   0  0  0  0  0  0           0  0  0
   12.0487  -29.2967    0.0000 H   0  0  0  0  0  0           0  0  0
   10.7500  -28.0812    0.0000 C   0  0  0  0  0  0           0  0  0
   10.3076  -26.9861    0.0000 H   0  0  0  0  0  0           0  0  0
    9.6549  -28.5237    0.0000 H   0  0  0  0  0  0           0  0  0
   11.1924  -29.1763    0.0000 H   0  0  0  0  0  0           0  0  0
   11.6807  -28.8084    0.0000 H   0  0  0  0  0  0           0  0  0
   10.8399  -26.3048    0.0000 H   0  0  0  0  0  0           0  0  0
   13.1791  -26.6336    0.0000 H   0  0  0  0  0  0           0  0  0
   12.5388  -24.1763    0.0000 H   0  0  0  0  0  0           0  0  0
   13.2828  -23.2139    0.0000 H   0  0  0  0  0  0           0  0  0
   15.8163  -23.2436    0.0000 C   0  0  0  0  0  0           0  0  0
   15.3738  -22.1485    0.0000 C   0  0  0  0  0  0           0  0  0
   16.1010  -21.2178    0.0000 C   0  0  0  0  0  0           0  0  0
   15.6585  -20.1227    0.0000 N   0  0  0  0  0  0           0  0  0
   16.3857  -19.1920    0.0000 C   0  0  0  0  0  0           0  0  0
   15.9432  -18.0969    0.0000 N   0  0  0  0  0  0           0  0  0
   16.6704  -17.1662    0.0000 H   0  0  0  0  0  0           0  0  0
   14.7736  -17.9325    0.0000 H   0  0  0  0  0  0           0  0  0
   17.5553  -19.3563    0.0000 N   0  0  0  0  0  0           0  0  0
   17.9977  -20.4514    0.0000 H   0  0  0  0  0  0           0  0  0
   18.2824  -18.4256    0.0000 H   0  0  0  0  0  0           0  0  0
   17.1961  -20.7753    0.0000 H   0  0  0  0  0  0           0  0  0
   17.0317  -21.9449    0.0000 H   0  0  0  0  0  0           0  0  0
   14.2787  -22.5910    0.0000 H   0  0  0  0  0  0           0  0  0
   14.4431  -21.4213    0.0000 H   0  0  0  0  0  0           0  0  0
   16.9114  -22.8011    0.0000 H   0  0  0  0  0  0           0  0  0
   16.7470  -23.9708    0.0000 H   0  0  0  0  0  0           0  0  0
   14.4632  -23.1727    0.0000 H   0  0  0  0  0  0           0  0  0
  1  2  1  0     0  0
  3  2  2  0     0  0
  4  3  1  0     0  0
  4  5  1  0     0  0
  5  6  1  0     0  0
  6  7  1  0     0  0
  7  8  1  0     0  0
  9  8  2  0     0  0
 10  9  1  0     0  0
 11 10  1  0     0  0
 11 12  1  0     0  0
  5 10  2  0     0  0
  9 13  1  0     0  0
 14 13  1  0     0  0
 14 15  1  0     0  0
 16 13  2  0     0  0
  8 17  1  0     0  0
  7 18  2  0     0  0
 18 19  1  0     0  0
 20 19  2  0     0  0
 21 20  1  0     0  0
  6 21  2  0     0  0
 21 22  1  0     0  0
 20 23  1  0     0  0
 19 24  1  0     0  0
 18 25  1  0     0  0
  4 26  1  0     0  0
  4 27  1  0     0  0
  3 28  1  0     0  0
 28 29  1  0     0  0
 29 30  1  0     0  0
 31 30  2  0     0  0
  2 31  1  0     0  0
 31 32  1  0     0  0
 33 32  1  0     0  0
 33 34  1  0     0  0
 35 32  2  0     0  0
 30 36  1  0     0  0
 29 37  2  0     0  0
 37 38  1  0     0  0
 39 38  2  0     0  0
 40 39  1  0     0  0
 28 40  2  0     0  0
 40 41  1  0     0  0
 39 42  1  0     0  0
 38 43  1  0     0  0
 37 44  1  0     0  0
  1 45  1  0     0  0
 46 47  2  0     0  0
 48 47  1  0     0  0
 48 49  1  0     0  0
 49 50  1  0     0  0
 50 51  1  0     0  0
 51 52  1  0     0  0
 48 52  1  0     0  0
 52 53  1  0     0  0
 52 54  1  0     0  0
 51 55  1  0     0  0
 51 56  1  0     0  0
 50 57  1  0     0  0
 50 58  1  0     0  0
 49 59  1  1     0  0
 60 59  2  0     0  0
 61 59  1  0     0  0
 61 62  1  0     0  0
 62 63  1  0     0  0
 64 63  2  0     0  0
 65 63  1  0     0  0
 65 66  1  0     0  0
 65 67  1  0     0  0
 62 68  1  0     0  0
 62 69  1  0     0  0
 61 70  1  0     0  0
 49 71  1  0     0  0
 47 72  1  0     0  0
 72 73  1  1     0  0
 73 74  1  0     0  0
 75 74  2  0     0  0
 76 74  1  0     0  0
 76 77  1  6     0  0
 77 78  1  0     0  0
 79 78  2  0     0  0
 78 80  1  0     0  0
 80 81  1  1     0  0
 81 82  1  0     0  0
 83 82  2  0     0  0
 82 84  1  0     0  0
 84 85  1  1     0  0
 85 86  1  0     0  0
 87 86  2  0     0  0
 88 86  1  0     0  0
 88 89  1  6     0  0
 89 90  1  0     0  0
 91 90  2  0     0  0
 92 90  1  0     0  0
 92 93  1  1     0  0
 93 94  1  0     0  0
 95 94  2  0     0  0
 96 94  1  0     0  0
 96 97  1  1     0  0
 97 98  1  0     0  0
 99 98  2  0     0  0
100 98  1  6     0  0
101100  1  0     0  0
101102  1  0     0  0
103102  2  0     0  0
104102  1  0     0  0
105104  1  0     0  0
100105  1  0     0  0
105106  1  0     0  0
105107  1  0     0  0
104108  1  0     0  0
104109  1  0     0  0
101110  1  0     0  0
100111  1  0     0  0
 97112  1  0     0  0
 96113  1  0     0  0
113114  1  0     0  0
115114  1  0     0  0
115116  1  0     0  0
117116  2  0     0  0
117118  1  0     0  0
114118  2  0     0  0
118119  1  0     0  0
116120  1  0     0  0
115121  1  0     0  0
113122  1  0     0  0
113123  1  0     0  0
 96124  1  0     0  0
 93125  1  0     0  0
 92126  1  0     0  0
126127  1  0     0  0
127128  1  0     0  0
128129  1  0     0  0
130129  1  0     0  0
130131  1  0     0  0
127131  2  0     0  0
131132  1  0     0  0
130133  1  0     0  0
129134  2  0     0  0
134135  1  0     0  0
136135  2  0     0  0
137136  1  0     0  0
128137  2  0     0  0
137138  1  0     0  0
136139  1  0     0  0
135140  1  0     0  0
134141  1  0     0  0
126142  1  0     0  0
126143  1  0     0  0
 92144  1  0     0  0
 89145  1  0     0  0
 88146  1  0     0  0
147146  1  0     0  0
147148  1  0     0  0
146149  1  0     0  0
146150  1  0     0  0
 88151  1  0     0  0
 85152  1  0     0  0
 84153  1  0     0  0
153154  1  0     0  0
154155  2  0     0  0
155156  1  0     0  0
156157  2  0     0  0
158157  1  0     0  0
158159  1  0     0  0
160157  1  0     0  0
161160  2  0     0  0
154161  1  0     0  0
161162  1  0     0  0
160163  1  0     0  0
156164  1  0     0  0
155165  1  0     0  0
153166  1  0     0  0
153167  1  0     0  0
 84168  1  0     0  0
 81169  1  0     0  0
 80170  1  0     0  0
170171  1  0     0  0
171172  1  0     0  0
172173  1  0     0  0
174173  1  0     0  0
174175  1  0     0  0
171175  2  0     0  0
175176  1  0     0  0
174177  1  0     0  0
173178  2  0     0  0
178179  1  0     0  0
180179  2  0     0  0
181180  1  0     0  0
172181  2  0     0  0
181182  1  0     0  0
180183  1  0     0  0
179184  1  0     0  0
178185  1  0     0  0
170186  1  0     0  0
170187  1  0     0  0
 80188  1  0     0  0
 77189  1  0     0  0
 76190  1  0     0  0
190191  1  0     0  0
191192  1  0     0  0
192193  1  0     0  0
192194  1  0     0  0
192195  1  0     0  0
191196  1  0     0  0
196197  1  0     0  0
196198  1  0     0  0
196199  1  0     0  0
191200  1  0     0  0
190201  1  0     0  0
190202  1  0     0  0
 76203  1  0     0  0
 73204  1  0     0  0
 72205  1  0     0  0
205206  1  0     0  0
206207  1  0     0  0
208207  1  0     0  0
208209  2  0     0  0
210209  1  0     0  0
210211  1  0     0  0
210212  1  0     0  0
213209  1  0     0  0
213214  1  0     0  0
213215  1  0     0  0
207216  1  0     0  0
207217  1  0     0  0
206218  1  0     0  0
206219  1  0     0  0
205220  1  0     0  0
205221  1  0     0  0
 72222  1  0     0  0
M  END
> <SUBSTANCE_ID>
11547

> <UNII>
08AN7WA2G0

> <DESC_PART1>
<?xml version="1.0" encoding="UTF-8"?>
<PROTEIN xmlns="Dr.Borodina.Schema" xmlns:x0="http://www.w3.org/2001/XMLSchema">
 <SEQUENCE_TYPE/>
 <NUMBER_OF_SUBUNITS>1</NUMBER_OF_SUBUNITS>
 <SUBUNIT_GROUP>
 <SUBUNIT>1</SUBUNIT>
 <LENGTH>10</LENGTH>
 <SEQUENCE>QHWSYXLRPG</SEQUENCE>
 </SUBUNIT_GROUP>
 <DISULFIDE_LINKAGE/>
 <OTHER_LINKAGE/>
 <GLYCOSYLATION/>
 <MODIFICATION_GROUP>
 <STRUCTURAL_MODIFICATION_GROUP>
 <RESIDUE_MODIFIED/>
 <RESIDUE_SITE>1_1</RESIDUE_SITE>
 <NUMBER_OF_FRAGMENTS_MOIETIES>1</NUMBER_OF_FRAGMENTS_MOIETIES>
 <AMOUNT_TYPE/>
 <MOLECULAR_FRAGMENT_MOIETY>
 <STRUCTURAL_MODIFICATION_TYPE>AMINO ACID SUBSTITUTION</STRUCTURAL_MODIFICATION_TYPE>
 <ROLE/>
 <FRAGMENT_NUMBER>1</FRAGMENT_NUMBER>
 <MOLECULAR_FRAGMENT_NAME>PYROGLU</MOLECULAR_FRAGMENT_NAME>
 <MOLECULAR_FRAGMENT_ID>SZB83O1W42</MOLECULAR_FRAGMENT_ID>
 <MOLECULAR_FRAGMENT_INCHI/>
 <FRAGMENT_CONNECTIVITY>0;7</FRAGMENT_CONNECTIVITY>
 <MOLFILE><![CDATA[C5H7NO3
YUtclcactv06271517022D 0   0.00000     0.00000     1
 
  9  9  0  0  1  0  0  0  0  0999 V2000
    7.3936   -4.0485    0.0000 N   0  0  0  0  0  0  0  0  0  0  0  0
    6.7937   -4.4860    0.0000 C   0  0  0  0  0  0  0  0  0  0  0  0
    6.0853   -4.2694    0.0000 O   0  0  0  0  0  0  0  0  0  0  0  0
    7.0228   -5.1860    0.0000 C   0  0  0  0  0  0  0  0  0  0  0  0
    7.7770   -5.1860    0.0000 C   0  0  0  0  0  0  0  0  0  0  0  0
    7.9978   -4.4693    0.0000 C   0  0  0  0  0  0  0  0  0  0  0  0
    8.7103   -4.2277    0.0000 C   0  0  0  0  0  0  0  0  0  0  0  0
    9.2686   -4.7235    0.0000 O   0  0  0  0  0  0  0  0  0  0  0  0
    8.8645   -3.4985    0.0000 O   0  0  0  0  0  0  0  0  0  0  0  0
  1  2  1  0  0  0  0
  2  3  2  0  0  0  0
  2  4  1  0  0  0  0
  4  5  1  0  0  0  0
  5  6  1  0  0  0  0
  1  6  1  0  0  0  0
  6  7  1  6  0  0  0
  7  8  2  0  0  0  0
  7  9  1  0  0  0  0
M  END
]]></MOLFILE>
 <AMOUNT/>
 </MOLECULAR_FRAGMENT_MOIETY>
 </STRUCTURAL_MODIFICATION_GROUP>
 <STRUCTURAL_MODIFICATION_GROUP>
 <RESIDUE_MODIFIED/>
 <RESIDUE_SITE>1_6</RESIDUE_SITE>
 <NUMBER_OF_FRAGMENTS_MOIETIES>1</NUMBER_OF_FRAGMENTS_MOIETIES>
 <AMOUNT_TYPE/>
 <MOLECULAR_FRAGMENT_MOIETY>
 <STRUCTURAL_MODIFICATION_TYPE>AMINO ACID SUBSTITUTION</STRUCTURAL_MODIFICATION_TYPE>
 <ROLE/>
 <FRAGMENT_NUMBER>1</FRAGMENT_NUMBER>
 <MOLECULAR_FRAGMENT_NAME>D-TRP</MOLECULAR_FRAGMENT_NAME>
 <MOLECULAR_FRAGMENT_ID>7NS97N9H1G</MOLECULAR_FRAGMENT_ID>
 <MOLECULAR_FRAGMENT_INCHI/>
 <FRAGMENT_CONNECTIVITY>10;5</FRAGMENT_CONNECTIVITY>
 <MOLFILE><![CDATA[C11H12N2O2
YUtclcactv06271517022D 0   0.00000     0.00000     1
 
 15 16  0  0  1  0  0  0  0  0999 V2000
   12.5106  -10.0715    0.0000 C   0  0  0  0  0  0  0  0  0  0  0  0
   12.4647   -8.8465    0.0000 N   0  0  0  0  0  0  0  0  0  0  0  0
   12.9064   -9.4257    0.0000 C   0  0  0  0  0  0  0  0  0  0  0  0
   11.7647   -9.8882    0.0000 C   0  0  0  0  0  0  0  0  0  0  0  0
   14.3481  -10.4132    0.0000 C   0  0  0  0  0  0  0  0  0  0  0  0
   13.1231  -10.4215    0.0000 C   0  0  0  0  0  0  0  0  0  0  0  0
   11.7647   -9.0924    0.0000 C   0  0  0  0  0  0  0  0  0  0  0  0
   13.7356  -10.0673    0.0000 C   0  0  0  0  0  0  0  0  0  0  0  0
   14.3481  -11.1257    0.0000 O   0  0  0  0  0  0  0  0  0  0  0  0
   13.7356   -9.3590    0.0000 N   0  0  0  0  0  0  0  0  0  0  0  0
   14.9606  -10.0590    0.0000 O   0  0  0  0  0  0  0  0  0  0  0  0
   11.1231  -10.2549    0.0000 C   0  0  0  0  0  0  0  0  0  0  0  0
   11.0564   -8.7257    0.0000 C   0  0  0  0  0  0  0  0  0  0  0  0
   10.4022   -9.8882    0.0000 C   0  0  0  0  0  0  0  0  0  0  0  0
   10.4022   -9.1423    0.0000 C   0  0  0  0  0  0  0  0  0  0  0  0
  2  3  1  0  0  0  0
  1  3  2  0  0  0  0
  1  4  1  0  0  0  0
  1  6  1  0  0  0  0
  4  7  2  0  0  0  0
  2  7  1  0  0  0  0
  5  8  1  0  0  0  0
  6  8  1  0  0  0  0
  5  9  2  0  0  0  0
  8 10  1  1  0  0  0
  5 11  1  0  0  0  0
  4 12  1  0  0  0  0
  7 13  1  0  0  0  0
 12 14  2  0  0  0  0
 14 15  1  0  0  0  0
 13 15  2  0  0  0  0
M  END
]]></MOLFILE>
 <AMOUNT/>
 </MOLECULAR_FRAGMENT_MOIETY>
 </STRUCTURAL_MODIFICATION_GROUP>
 <STRUCTURAL_MODIFICATION_GROUP>
 <RESIDUE_MODIFIED/>
 <RESIDUE_SITE>1_10</RESIDUE_SITE>
 <NUMBER_OF_FRAGMENTS_MOIETIES>1</NUMBER_OF_FRAGMENTS_MOIETIES>
 <AMOUNT_TYPE/>
 <MOLECULAR_FRAGMENT_MOIETY>
 <STRUCTURAL_MODIFICATION_TYPE>AMINO ACID SUBSTITUTION</STRUCTURAL_MODIFICATION_TYPE>
 <ROLE/>
 <FRAGMENT_NUMBER>1</FRAGMENT_NUMBER>
 <MOLECULAR_FRAGMENT_NAME>GLYCINE AMIDE</MOLECULAR_FRAGMENT_NAME>
 <MOLECULAR_FRAGMENT_ID>4JDT453NWO</MOLECULAR_FRAGMENT_ID>
 <MOLECULAR_FRAGMENT_INCHI/>
 <FRAGMENT_CONNECTIVITY>5;0</FRAGMENT_CO

> <DESC_PART2>
NNECTIVITY>
 <MOLFILE><![CDATA[C2H6N2O
YUtclcactv06271517022D 0   0.00000     0.00000     1
 
  5  4  0  0  0  0  0  0  0  0999 V2000
    5.5003   -5.6639    0.0000 O   0  0  0  0  0  0  0  0  0  0  0  0
    6.2168   -5.2519    0.0000 C   0  0  0  0  0  0  0  0  0  0  0  0
    6.2168   -4.4326    0.0000 N   0  0  0  0  0  0  0  0  0  0  0  0
    6.9223   -5.6639    0.0000 C   0  0  0  0  0  0  0  0  0  0  0  0
    7.6389   -5.2519    0.0000 N   0  0  0  0  0  0  0  0  0  0  0  0
  1  2  2  0  0  0  0
  2  3  1  0  0  0  0
  2  4  1  0  0  0  0
  4  5  1  0  0  0  0
M  END
]]></MOLFILE>
 <AMOUNT/>
 </MOLECULAR_FRAGMENT_MOIETY>
 </STRUCTURAL_MODIFICATION_GROUP>
 </MODIFICATION_GROUP>
 <PROPERTY_GROUP/>
 <MOLECULAR_WEIGHT/>
 <COMMENTS/>
 <PUBLIC_DOMAIN>https://pubchem.ncbi.nlm.nih.gov/summary/summary.cgi?sid=47207906&amp;version=3</PUBLIC_DOMAIN>
</PROTEIN>

> <COMMENTS>
FDA_ID: F011568   PROTEIN_;

> <CDBREGNO>
107035

> <STRUCTURE_ID>
67283

$$$$
