
  Symyx   06031522062D 1   1.00000     0.00000     0

113121  0     1  0            999 V2000
   17.9893  -10.6818    0.0000 C   0  0  1  0  0  0           0  0  0
   18.2750  -11.8279    0.0000 C   0  0  0  0  0  0           0  0  0
   16.8539  -10.3563    0.0000 C   0  0  0  0  0  0           0  0  0
   16.0043  -11.1768    0.0000 O   0  0  0  0  0  0           0  0  0
   16.5682   -9.2103    0.0000 O   0  0  0  0  0  0           0  0  0
   17.4254  -12.6483    0.0000 S   0  0  0  0  0  0           0  0  0
  -23.2757  -14.3729    0.0000 C   0  0  0  0  0  0           0  0  0
  -22.0945  -14.3729    0.0000 C   0  0  0  0  0  0           0  0  0
  -23.2757  -12.3272    0.0000 C   0  0  0  0  0  0           0  0  0
  -22.0946  -12.3272    0.0000 C   0  0  0  0  0  0           0  0  0
  -20.3229  -13.3500    0.0000 N   0  0  0  0  0  0           0  0  0
  -21.5040  -13.3500    0.0000 C   0  0  0  0  0  0           0  0  0
  -19.7323  -12.3272    0.0000 C   0  0  0  0  0  0           0  0  0
  -19.5326  -10.4266    0.0000 C   0  0  0  0  0  0           0  0  0
  -20.3229  -11.3043    0.0000 C   0  0  0  0  0  0           0  0  0
  -18.4536  -10.9070    0.0000 N   0  0  3  0  0  0           0  0  0
  -17.6215  -12.7758    0.0000 C   0  0  0  0  0  0           0  0  0
  -18.5771  -12.0816    0.0000 C   0  0  0  0  0  0           0  0  0
  -16.5425  -12.2954    0.0000 C   0  0  0  0  0  0           0  0  0
  -14.3846  -11.3346    0.0000 O   0  0  0  0  0  0           0  0  0
  -15.3401  -10.6404    0.0000 C   0  0  0  0  0  0           0  0  0
  -16.4191  -11.1208    0.0000 C   0  0  0  0  0  0           0  0  0
  -13.5525  -13.2035    0.0000 O   0  0  0  0  0  0           0  0  0
  -14.5080  -12.5093    0.0000 C   0  0  0  0  0  0           0  0  0
  -16.4366  -13.8101    0.0000 O   0  0  0  0  0  0           0  0  0
  -17.0005  -15.7766    0.0000 O   0  0  0  0  0  0           0  0  0
  -18.1358  -15.4511    0.0000 C   0  0  0  0  0  0           0  0  0
  -18.6997  -17.4176    0.0000 C   0  0  0  0  0  0           0  0  0
  -19.5493  -18.2380    0.0000 C   0  0  0  0  0  0           0  0  0
  -20.9704  -16.7665    0.0000 C   0  0  0  0  0  0           0  0  0
  -20.1208  -15.9460    0.0000 C   0  0  0  0  0  0           0  0  0
  -18.9854  -16.2715    0.0000 C   0  0  0  0  0  0           0  0  0
  -15.0155  -15.2817    0.0000 O   0  0  0  0  0  0           0  0  0
  -16.1509  -14.9561    0.0000 C   0  0  0  0  0  0           0  0  0
  -15.5870  -12.9897    0.0000 C   0  0  1  0  0  0           0  0  0
  -13.7483  -13.8864    0.0000 C   0  0  0  0  0  0           0  0  0
  -14.9265  -13.9688    0.0000 C   0  0  0  0  0  0           0  0  0
  -17.2512   -9.2519    0.0000 O   0  0  0  0  0  0           0  0  0
  -17.3746  -10.4266    0.0000 C   0  0  0  0  0  0           0  0  0
  -21.5040  -11.3043    0.0000 C   0  0  0  0  0  0           0  0  0
  -23.2757  -10.2814    0.0000 C   0  0  0  0  0  0           0  0  0
  -22.0946  -10.2814    0.0000 C   0  0  0  0  0  0           0  0  0
  -25.0473  -13.3500    0.0000 O   0  0  0  0  0  0           0  0  0
  -23.8662  -13.3500    0.0000 C   0  0  0  0  0  0           0  0  0
  -20.6846  -17.9125    0.0000 C   0  0  0  0  0  0           0  0  0
  -24.9403  -17.7563    0.0000 N   0  0  0  0  0  0           0  0  0
  -24.6546  -18.9023    0.0000 C   0  0  0  0  0  0           0  0  0
  -23.5192  -19.2279    0.0000 C   0  0  0  0  0  0           0  0  0
  -23.2335  -20.3739    0.0000 C   0  0  0  0  0  0           0  0  0
  -20.1132  -20.2045    0.0000 O   0  0  0  0  0  0           0  0  0
  -22.0981  -20.6994    0.0000 C   0  0  2  0  0  0           0  0  0
  -21.8124  -21.8454    0.0000 N   0  0  0  0  0  0           0  0  0
  -23.7973  -22.3404    0.0000 O   0  0  0  0  0  0           0  0  0
  -22.6620  -22.6659    0.0000 C   0  0  0  0  0  0           0  0  0
  -22.3762  -23.8119    0.0000 C   0  0  0  0  0  0           0  0  0
  -21.2409  -24.1375    0.0000 O   0  0  0  0  0  0           0  0  0
  -18.9702  -24.7886    0.0000 O   0  0  0  0  0  0           0  0  0
   11.7298  -16.5227    0.0000 O   0  0  0  0  0  0           0  0  0
   15.7738  -14.6168    0.0000 O   0  0  0  0  0  0           0  0  0
   19.6287  -16.1742    0.0000 O   0  0  0  0  0  0           0  0  0
   18.7239  -15.4150    0.0000 C   0  0  0  0  0  0           0  0  0
   18.8063  -14.2368    0.0000 C   0  0  0  0  0  0           0  0  0
   17.7112  -13.7944    0.0000 C   0  0  3  0  0  0           0  0  0
   16.9520  -14.6991    0.0000 C   0  0  0  0  0  0           0  0  0
   17.5779  -15.7008    0.0000 N   0  0  3  0  0  0           0  0  0
   17.1354  -16.7959    0.0000 C   0  0  0  0  0  0           0  0  0
   14.3538  -18.2197    0.0000 C   0  0  0  0  0  0           0  0  0
   15.5234  -18.0554    0.0000 C   0  0  0  0  0  0           0  0  0
   15.9658  -16.9602    0.0000 C   0  0  3  0  0  0           0  0  0
   15.2387  -16.0295    0.0000 C   0  0  0  0  0  0           0  0  0
   14.0691  -16.1939    0.0000 C   0  0  0  0  0  0           0  0  0
   13.6266  -17.2890    0.0000 C   0  0  3  0  0  0           0  0  0
   12.4570  -17.4534    0.0000 C   0  0  0  0  0  0           0  0  0
   12.0146  -18.5485    0.0000 N   0  0  0  0  0  0           0  0  0
   10.8450  -18.7129    0.0000 C   0  0  0  0  0  0           0  0  0
    9.4642  -15.9864    0.0000 N   0  0  0  0  0  0           0  0  0
   10.4433  -16.6468    0.0000 N   0  0  0  0  0  0           0  0  0
   10.1178  -17.7822    0.0000 C   0  0  0  0  0  0           0  0  0
    8.9374  -17.8234    0.0000 C   0  0  0  0  0  0           0  0  0
    8.5334  -16.7136    0.0000 N   0  0  3  0  0  0           0  0  0
    7.3981  -16.3880    0.0000 C   0  0  0  0  0  0           0  0  0
    6.5485  -17.2085    0.0000 C   0  0  0  0  0  0           0  0  0
    5.4131  -16.8829    0.0000 O   0  0  0  0  0  0           0  0  0
    4.5635  -17.7034    0.0000 C   0  0  0  0  0  0           0  0  0
    3.4282  -17.3779    0.0000 C   0  0  0  0  0  0           0  0  0
    2.5786  -18.1983    0.0000 O   0  0  0  0  0  0           0  0  0
    1.4432  -17.8728    0.0000 C   0  0  0  0  0  0           0  0  0
    0.5936  -18.6933    0.0000 C   0  0  0  0  0  0           0  0  0
   -0.5417  -18.3677    0.0000 O   0  0  0  0  0  0           0  0  0
   -1.3913  -19.1882    0.0000 C   0  0  0  0  0  0           0  0  0
   -2.5267  -18.8627    0.0000 C   0  0  0  0  0  0           0  0  0
   -3.3763  -19.6831    0.0000 O   0  0  0  0  0  0           0  0  0
   -4.5117  -19.3576    0.0000 C   0  0  0  0  0  0           0  0  0
   -5.3613  -20.1781    0.0000 C   0  0  0  0  0  0           0  0  0
   -6.4966  -19.8525    0.0000 O   0  0  0  0  0  0           0  0  0
   -7.3462  -20.6730    0.0000 C   0  0  0  0  0  0           0  0  0
   -8.4816  -20.3474    0.0000 C   0  0  0  0  0  0           0  0  0
   -9.3312  -21.1679    0.0000 O   0  0  0  0  0  0           0  0  0
  -10.4665  -20.8424    0.0000 C   0  0  0  0  0  0           0  0  0
  -11.3161  -21.6628    0.0000 C   0  0  0  0  0  0           0  0  0
  -12.4515  -21.3373    0.0000 O   0  0  0  0  0  0           0  0  0
  -13.3011  -22.1578    0.0000 C   0  0  0  0  0  0           0  0  0
  -14.4364  -21.8322    0.0000 C   0  0  0  0  0  0           0  0  0
  -15.2860  -22.6527    0.0000 O   0  0  0  0  0  0           0  0  0
  -16.4214  -22.3271    0.0000 C   0  0  0  0  0  0           0  0  0
  -17.2710  -23.1476    0.0000 C   0  0  0  0  0  0           0  0  0
  -18.4063  -22.8221    0.0000 N   0  0  0  0  0  0           0  0  0
  -19.2559  -23.6425    0.0000 C   0  0  0  0  0  0           0  0  0
  -20.3913  -23.3170    0.0000 C   0  0  0  0  0  0           0  0  0
  -21.5342  -18.7329    0.0000 N   0  0  0  0  0  0           0  0  0
  -21.2485  -19.8790    0.0000 C   0  0  0  0  0  0           0  0  0
   19.9743  -10.1869    0.0000 H   0  0  0  0  0  0           0  0  0
   18.8389   -9.8614    0.0000 N   0  0  0  0  0  0           0  0  0
  1  2  1  1     0  0
  1  3  1  0     0  0
  3  4  1  0     0  0
  3  5  2  0     0  0
  2  6  1  0     0  0
  9 44  2  0     0  0
 44  7  1  0     0  0
  8  7  2  0     0  0
 12  8  1  0     0  0
 10 12  2  0     0  0
  9 10  1  0     0  0
 10 40  1  0     0  0
 15 40  2  0     0  0
 15 13  1  0     0  0
 13 11  2  0     0  0
 12 11  1  0     0  0
 13 18  1  0     0  0
 16 18  1  0     0  0
 14 16  1  0     0  0
 15 14  1  0     0  0
 16 39  1  0     0  0
 22 39  1  0     0  0
 22 19  2  0     0  0
 19 17  1  0     0  0
 18 17  2  0     0  0
 19 35  1  0     0  0
 24 35  1  0     0  0
 20 24  1  0     0  0
 20 21  1  0     0  0
 22 21  1  0     0  0
 24 23  2  0     0  0
 35 25  1  1     0  0
 25 34  1  0     0  0
 34 26  1  0     0  0
 26 27  1  0     0  0
 27 32  1  0     0  0
 28 32  2  0     0  0
 29 28  1  0     0  0
 29 45  2  0     0  0
 45 30  1  0     0  0
 30 31  2  0     0  0
 32 31  1  0     0  0
 34 33  2  0     0  0
 35 37  1  0     0  0
 37 36  1  0     0  0
 39 38  2  0     0  0
 40 42  1  0     0  0
 42 41  1  0     0  0
 44 43  1  0     0  0
 45110  1  0     0  0
 47 46  1  0     0  0
 48 47  1  0     0  0
 49 48  1  0     0  0
 51 49  1  1     0  0
111 50  2  0     0  0
111 51  1  0     0  0
 52 51  1  0     0  0
 54 52  1  0     0  0
 54 53  2  0     0  0
 55 54  1  0     0  0
 56 55  1  0     0  0
109 56  1  0     0  0
108 57  2  0     0  0
 73 58  2  0     0  0
 64 59  2  0     0  0
 61 60  2  0     0  0
 65 61  1  0     0  0
 61 62  1  0     0  0
 63 62  1  0     0  0
 64 63  1  0     0  0
 64 65  1  0     0  0
 66 65  1  0     0  0
 69 66  1  0     0  0
 72 67  1  0     0  0
 67 68  1  0     0  0
 68 69  1  0     0  0
 69 70  1  0     0  0
 70 71  1  0     0  0
 71 72  1  0     0  0
 73 72  1  0     0  0
 74 73  1  0     0  0
 75 74  1  0     0  0
 78 75  1  0     0  0
 76 80  1  0     0  0
 77 76  2  0     0  0
 78 77  1  0     0  0
 79 78  2  0     0  0
 79 80  1  0     0  0
 81 80  1  0     0  0
 82 81  1  0     0  0
 83 82  1  0     0  0
 84 83  1  0     0  0
 85 84  1  0     0  0
 86 85  1  0     0  0
 87 86  1  0     0  0
 88 87  1  0     0  0
 89 88  1  0     0  0
 90 89  1  0     0  0
 91 90  1  0     0  0
 92 91  1  0     0  0
 93 92  1  0     0  0
 94 93  1  0     0  0
 95 94  1  0     0  0
 96 95  1  0     0  0
 97 96  1  0     0  0
 98 97  1  0     0  0
 99 98  1  0     0  0
100 99  1  0     0  0
101100  1  0     0  0
102101  1  0     0  0
103102  1  0     0  0
104103  1  0     0  0
105104  1  0     0  0
106105  1  0     0  0
107106  1  0     0  0
108107  1  0     0  0
109108  1  0     0  0
111110  1  0     0  0
 63  6  1  0     0  0
113112  1  0     0  0
113  1  1  0     0  0
M  END
>  <DESC_PART1>
<PROTEIN>
 <SEQUENCE_TYPE>COMPLETE</SEQUENCE_TYPE>
 <NUMBER_OF_SUBUNITS>4</NUMBER_OF_SUBUNITS>
<SUBUNIT_GROUP>
 <SUBUNIT>1</SUBUNIT>
 <LENGTH>449</LENGTH>
 <SEQUENCE>EVQLVESGGGVVQPGRSLRLSCSASGFDFTTYWMSWVRQAPGKGLEWIGEIHPDSSTINYAPSLKDRFTISRDNAKNTLFLQMDSLRPEDTGVYFCASLYFGFPWFAYWGQGTPVTVSSASTKGPSVFPLAPSSKSTSGGTAALGCLVKDYFPEPVTVSWNSGALTSGVHTFPAVLQSSGLYSLSSVVTVPSSSLGTQTYICNVNHKPSNTKVDKRVEPKSCDKTHTCPPCPAPELLGGPSVFLFPPKPKDTLMISRTPEVTCVVVDVSHEDPEVKFNWYVDGVEVHNAKTKPREEQYNSTYRVVSVLTVLHQDWLNGKEYKCKVSNKALPAPIEKTISKAKGQPREPQVYTLPPSREEMTKNQVSLTCLVKGFYPSDIAVEWESNGQPENNYKTTPPVLDSDGSFFLYSKLTVDKSRWQQGNVFSCSVMHEALHNHYTQKSLSLSPGK</SEQUENCE>
 </SUBUNIT_GROUP>
<SUBUNIT_GROUP>
 <SUBUNIT>2</SUBUNIT>
 <LENGTH>449</LENGTH>
 <SEQUENCE>EVQLVESGGGVVQPGRSLRLSCSASGFDFTTYWMSWVRQAPGKGLEWIGEIHPDSSTINYAPSLKDRFTISRDNAKNTLFLQMDSLRPEDTGVYFCASLYFGFPWFAYWGQGTPVTVSSASTKGPSVFPLAPSSKSTSGGTAALGCLVKDYFPEPVTVSWNSGALTSGVHTFPAVLQSSGLYSLSSVVTVPSSSLGTQTYICNVNHKPSNTKVDKRVEPKSCDKTHTCPPCPAPELLGGPSVFLFPPKPKDTLMISRTPEVTCVVVDVSHEDPEVKFNWYVDGVEVHNAKTKPREEQYNSTYRVVSVLTVLHQDWLNGKEYKCKVSNKALPAPIEKTISKAKGQPREPQVYTLPPSREEMTKNQVSLTCLVKGFYPSDIAVEWESNGQPENNYKTTPPVLDSDGSFFLYSKLTVDKSRWQQGNVFSCSVMHEALHNHYTQKSLSLSPGK</SEQUENCE>
 </SUBUNIT_GROUP>
<SUBUNIT_GROUP>
 <SUBUNIT>3</SUBUNIT>
 <LENGTH>213</LENGTH>
 <SEQUENCE>DIQLTQSPSSLSASVGDRVTITCKASQDVGTSVAWYQQKPGKAPKLLIYWTSTRHTGVPSRFSGSGSGTDFTFTISSLQPEDIATYYCQQYSLYRSFGQGTKVEIKRTVAAPSVFIFPPSDEQLKSGTASVVCLLNNFYPREAKVQWKVDNALQSGNSQESVTEQDSKDSTYSLSSTLTLSKADYEKHKVYACEVTHQGLSSPVTKSFNRGEC</SEQUENCE>
 </SUBUNIT_GROUP>
<SUBUNIT_GROUP>
 <SUBUNIT>4</SUBUNIT>
 <LENGTH>213</LENGTH>
 <SEQUENCE>DIQLTQSPSSLSASVGDRVTITCKASQDVGTSVAWYQQKPGKAPKLLIYWTSTRHTGVPSRFSGSGSGTDFTFTISSLQPEDIATYYCQQYSLYRSFGQGTKVEIKRTVAAPSVFIFPPSDEQLKSGTASVVCLLNNFYPREAKVQWKVDNALQSGNSQESVTEQDSKDSTYSLSSTLTLSKADYEKHKVYACEVTHQGLSSPVTKSFNRGEC</SEQUENCE>
 </SUBUNIT_GROUP>
 <DISULFIDE_LINKAGE>1_22-1_96; 1_146-1_202; 1_222-3_213; 1_228-2_228; 1_231-2_231; 1_263-1_323; 1_369-1_427; 2_22-2_96; 2_146-2_202; 2_222-4_213; 2_263-2_323; 2_369-2_427; 3_23-3_88; 3_133-3_193; 4_23-4_88; 4_133-4_193</DISULFIDE_LINKAGE>
<GLYCOSYLATION>
 <GLYCOSYLATION_TYPE>MAMMALIAN</GLYCOSYLATION_TYPE>
 <N_GLYCOSYLATION>1_299; 2_299</N_GLYCOSYLATION>
 <O_GLYCOSYLATION/>
 <C_GLYCOSYLATION/>
 </GLYCOSYLATION>
<MODIFICATION_GROUP>
<STRUCTURAL_MODIFICATION_GROUP>
 <RESIDUE_MODIFIED>Cys</RESIDUE_MODIFIED>
 <RESIDUE_SITE>1_22; 2_22; 3_23; 4_23; 3_88; 4_88; 1_96; 2_96; 3_133; 4_133; 1_146; 2_146; 3_193; 4_193; 1_202; 2_202; 3_213; 4_213; 1_222; 2_222; 1_228; 2_228; 1_231; 2_231; 1_263; 2_263; 1_323; 2_323; 1_369; 2_369; 1_427; 2_427 </RESIDUE_SITE>
 <NUMBER_OF_FRAGMENTS_MOIETIES/>
 <AMOUNT_TYPE>probability</AMOUNT_TYPE>
<MOLECULAR_FRAGMENT_MOIETY>
 <STRUCTURAL_MODIFICATION_TYPE/>
 <ROLE>AMINO ACID SUBSTITUTION</ROLE>
 <FRAGMENT_NUMBER/>
 <MOLECULAR_FRAGMENT_NAME/>
 <MOLECULAR_FRAGMENT_ID/>
 <MOLECULAR_FRAGMENT_INCHI/>
 <MOLFILE external="1"/>
 <FRAGMENT_CONNECTIVTY>113; 3</FRAGMENT_CONNECTIVTY>
<AMOUNT>
 <AVERAGE>6/32</AVERAGE>
 <LOW_LIMIT/>
 <HIGH_LIMIT/>
 <UNIT/>
 <NON_NUMERIC_VALUE/>
 </AMOUNT>
 </MOLECULAR_FRAGMENT_MOIETY>
 </STRUCTURAL_MODIFICATION_GROUP>
 </MODIFICATION_GROUP>
<PROPERTY_GROUP>
 <PROPERTY_TYPE/>
 <PROPERTY/>
<PROPERTY_DESCRIPTION>
 <SUBSTANCE_NAME/>
 <SUBSTANCE_ID/>
 <SUBSTANCE_ID/>
 <AMOUNT_TYPE/>
<AMOUNT>
 <AVERAGE/>
 <LOW_LIMIT/>
 <HIGH_LIMIT/>
 <UNIT/>
 <NON_NUMERIC_VALUE/>
 </AMOUNT>
 </PROPERTY_DESCRIPTION>
 </PROPERTY_GROUP>
<MOLECULAR_WEIGHT>
 <MOLECULAR_WEIGHT_TYPE/>
 <MOLECULAR_WEIGHT_METHOD/>
<AMOUNT>
 <AVERAGE/>
 <LOW_LIMIT/>
 <HIGH_LIMIT/>
 <UNIT/>
 <NON_NUMERIC_VALUE/>
 </AMOUNT>
 </MOLECULAR_WEIGHT>
 <COMMENTS/>
 <PUBLIC_DOMAIN/>
 </PROTEIN>
>  <SUBSTANCE_ID>
187553

>  <UNII>
8E3HI6QQ9J

>  <CDBREGNO>
126231

>  <STRUCTURE_ID>
85815

$$$$
