
  Symyx   04271720242D 1   1.00000     0.00000     0

  0  0  0     0  0            999 V3000
M  V30 BEGIN CTAB
M  V30 COUNTS 113 121 3 0 1
M  V30 BEGIN ATOM
M  V30 1 C 7.064 -13.9021 0 0
M  V30 2 C 7.9619 -13.5616 0 0
M  V30 3 O 8.9847 -14.1521 0 0
M  V30 4 C 10.0076 -13.5616 0 0
M  V30 5 C 11.0305 -14.1521 0 0
M  V30 6 N 12.0533 -13.5616 0 0
M  V30 7 C 13.0762 -14.1521 0 0
M  V30 8 C 14.0991 -13.5616 0 0
M  V30 9 O 15.1219 -14.1521 0 0
M  V30 10 O 6.939 -15.3332 0 0
M  V30 11 O 11.0305 -15.3332 0 0
M  V30 12 C 16.1448 -13.5616 0 0
M  V30 13 C 17.1677 -14.1521 0 0
M  V30 14 O 18.1905 -13.5616 0 0
M  V30 15 C 19.2134 -14.1521 0 0
M  V30 16 C 20.2363 -13.5616 0 0
M  V30 17 O 21.2591 -14.1521 0 0
M  V30 18 C 22.282 -13.5616 0 0
M  V30 19 C 23.3048 -14.1521 0 0
M  V30 20 O 24.3277 -13.5616 0 0
M  V30 21 C 24.3277 -12.3805 0 0
M  V30 22 C 23.3048 -11.7899 0 0
M  V30 23 O 22.282 -12.3805 0 0
M  V30 24 C 21.2591 -11.7899 0 0
M  V30 25 C 20.2363 -12.3805 0 0
M  V30 26 O 19.2134 -11.7899 0 0
M  V30 27 C 18.1905 -12.3805 0 0
M  V30 28 O 16.1448 -12.3805 0 0
M  V30 29 C 15.1219 -11.7899 0 0
M  V30 30 C 14.0991 -12.3805 0 0
M  V30 31 O 13.0762 -11.7899 0 0
M  V30 32 C 7.1571 -6.1491 0 0
M  V30 33 C 8.3383 -6.1491 0 0
M  V30 34 C 8.9261 -7.1694 0 0
M  V30 35 C 8.3354 -8.1949 0 0
M  V30 36 C 7.1602 -8.1949 0 0
M  V30 37 C 6.5639 -7.176 0 0
M  V30 38 C 8.9269 -5.1341 0 0
M  V30 39 C 10.1047 -5.1341 0 0
M  V30 40 C 10.6918 -6.1481 0 0
M  V30 41 N 10.1086 -7.1694 0 0
M  V30 42 C 10.9148 -4.2546 0 0
M  V30 43 N 11.9583 -4.7228 0 0 CFG=3
M  V30 44 C 11.8287 -5.8931 0 0
M  V30 45 C 13.0337 -4.252 0 0
M  V30 46 C 13.9828 -4.9493 0 0
M  V30 47 C 13.8565 -6.114 0 0
M  V30 48 C 12.7817 -6.5932 0 0
M  V30 49 C 15.0548 -4.4763 0 0
M  V30 50 O 16.0003 -5.1682 0 0
M  V30 51 C 15.8739 -6.333 0 0
M  V30 52 C 14.802 -6.8059 0 0 CFG=1
M  V30 53 C 8.3363 -4.1105 0 0
M  V30 54 C 8.9269 -3.0877 0 0
M  V30 55 O 5.3828 -7.176 0 0
M  V30 56 O 13.9669 -7.641 0 0
M  V30 57 C 14.2726 -8.7819 0 0
M  V30 58 O 13.4374 -9.617 0 0
M  V30 59 C 15.3926 -7.8287 0 0
M  V30 60 C 16.5737 -7.8287 0 0
M  V30 61 O 15.4134 -9.0876 0 0
M  V30 62 C 12.4145 -9.0265 0 0
M  V30 63 C 11.3917 -9.617 0 0
M  V30 64 O 16.8968 -6.9235 0 0
M  V30 65 C 11.3917 -10.7981 0 0
M  V30 66 C 10.371 -11.386 0 0
M  V30 67 C 9.3478 -10.7952 0 0
M  V30 68 C 9.3478 -9.62 0 0
M  V30 69 C 10.3644 -9.024 0 0
M  V30 70 N 8.3256 -11.3853 0 0
M  V30 71 N 6.2812 -12.5656 0 0
M  V30 72 C 6.2813 -11.3853 0 0 CFG=2
M  V30 73 C 7.3035 -10.7952 0 0
M  V30 74 O 7.3035 -9.6149 0 0
M  V30 75 C 5.2591 -10.7951 0 0
M  V30 76 C 4.237 -11.3853 0 0
M  V30 77 C 3.2148 -10.7951 0 0
M  V30 78 C 2.1927 -11.3852 0 0
M  V30 79 N 1.1705 -10.7951 0 0
M  V30 80 N 17.6525 -9.4212 0 0
M  V30 81 N 16.4968 -9.6089 0 0
M  V30 82 C 18.1928 -10.4669 0 0
M  V30 83 C 17.3711 -11.3009 0 0
M  V30 84 C 19.2156 -11.0574 0 0
M  V30 85 N 20.2385 -10.4669 0 0
M  V30 86 C 20.2385 -9.2858 0 0
M  V30 87 C 21.2614 -8.6952 0 0 CFG=3
M  V30 88 C 22.2842 -9.2858 0 0
M  V30 89 C 23.3071 -8.6952 0 0
M  V30 90 C 23.3071 -7.5142 0 0 CFG=3
M  V30 91 C 22.2842 -6.9236 0 0
M  V30 92 C 21.2613 -7.5141 0 0
M  V30 93 O 19.2156 -8.6952 0 0
M  V30 94 C 24.4479 -7.2085 0 0
M  V30 95 N 24.7536 -6.0676 0 0 CFG=3
M  V30 96 C 23.9185 -5.2325 0 0
M  V30 97 C 25.7948 -5.5241 0 0
M  V30 98 C 24.4791 -4.1654 0 0 CFG=3
M  V30 99 C 25.6172 -4.3505 0 0
M  V30 100 O 22.7776 -5.5382 0 0
M  V30 101 O 26.8177 -6.1147 0 0
M  V30 102 S 23.4563 -3.5748 0 0
M  V30 103 C 22.4334 -4.1654 0 0
M  V30 104 C 21.4106 -3.5748 0 0 CFG=2
M  V30 105 N 20.3877 -4.1654 0 0
M  V30 106 N 16.5634 -10.7755 0 0 CFG=3
M  V30 107 C 17.1677 -11.7899 0 0
M  V30 108 C 15.1604 -10.7671 0 0
M  V30 109 C 14.448 -11.3921 0 0
M  V30 110 C 21.4106 -2.3937 0 0
M  V30 111 O 20.3877 -1.8032 0 0
M  V30 112 O 22.4334 -1.8032 0 0
M  V30 113 O 13.0337 -3.0709 0 0
M  V30 END ATOM
M  V30 BEGIN BOND
M  V30 1 1 1 2
M  V30 2 1 2 3
M  V30 3 1 3 4
M  V30 4 1 4 5
M  V30 5 1 5 6
M  V30 6 1 6 7
M  V30 7 1 7 8
M  V30 8 1 8 9
M  V30 9 2 1 10
M  V30 10 2 5 11
M  V30 11 1 9 12
M  V30 12 1 12 13
M  V30 13 1 13 14
M  V30 14 1 14 15
M  V30 15 1 16 17
M  V30 16 1 17 18
M  V30 17 1 18 19
M  V30 18 1 19 20
M  V30 19 1 20 21
M  V30 20 1 21 22
M  V30 21 1 22 23
M  V30 22 1 23 24
M  V30 23 1 24 25
M  V30 24 1 25 26
M  V30 25 1 15 16
M  V30 26 1 26 27
M  V30 27 1 27 107
M  V30 28 1 107 28
M  V30 29 1 28 29
M  V30 30 1 29 30
M  V30 31 1 30 31
M  V30 32 1 31 109
M  V30 33 1 109 108
M  V30 34 1 108 106
M  V30 35 2 33 32
M  V30 36 1 34 33
M  V30 37 2 35 34
M  V30 38 1 36 35
M  V30 39 2 37 36
M  V30 40 1 32 37
M  V30 41 2 39 38
M  V30 42 1 40 39
M  V30 43 2 41 40
M  V30 44 1 34 41
M  V30 45 1 33 38
M  V30 46 1 42 43
M  V30 47 1 44 43
M  V30 48 1 40 44
M  V30 49 1 39 42
M  V30 50 1 46 45
M  V30 51 2 47 46
M  V30 52 1 48 47
M  V30 53 2 44 48
M  V30 54 1 43 45
M  V30 55 1 50 49
M  V30 56 1 51 50
M  V30 57 1 52 51
M  V30 58 1 47 52
M  V30 59 1 46 49
M  V30 60 1 38 53
M  V30 61 1 53 54
M  V30 62 1 37 55
M  V30 63 1 52 56 CFG=1
M  V30 64 1 56 57
M  V30 65 1 57 58
M  V30 66 1 52 59
M  V30 67 1 59 60
M  V30 68 2 57 61
M  V30 69 1 58 62
M  V30 70 1 62 63
M  V30 71 2 51 64
M  V30 72 1 66 65
M  V30 73 2 67 66
M  V30 74 1 68 67
M  V30 75 2 69 68
M  V30 76 2 65 63
M  V30 77 1 63 69
M  V30 78 1 67 70
M  V30 79 1 71 72
M  V30 80 1 72 73
M  V30 81 2 73 74
M  V30 82 1 72 75 CFG=1
M  V30 83 1 75 76
M  V30 84 1 76 77
M  V30 85 1 77 78
M  V30 86 1 78 79
M  V30 87 1 73 70
M  V30 88 1 1 71
M  V30 89 2 83 82
M  V30 90 1 82 80
M  V30 91 2 80 81
M  V30 92 1 83 106
M  V30 93 1 81 106
M  V30 94 1 82 84
M  V30 95 1 84 85
M  V30 96 1 85 86
M  V30 97 1 86 87
M  V30 98 1 91 92
M  V30 99 1 90 91
M  V30 100 1 89 90
M  V30 101 1 88 89
M  V30 102 1 92 87
M  V30 103 1 87 88
M  V30 104 2 86 93
M  V30 105 1 90 94
M  V30 106 1 94 95
M  V30 107 1 98 99
M  V30 108 1 97 99
M  V30 109 1 96 98
M  V30 110 1 96 95
M  V30 111 1 95 97
M  V30 112 2 96 100
M  V30 113 2 97 101
M  V30 114 1 98 102
M  V30 115 1 102 103
M  V30 116 1 104 103 CFG=3
M  V30 117 1 104 105
M  V30 118 1 104 110
M  V30 119 1 110 111
M  V30 120 2 110 112
M  V30 121 2 45 113
M  V30 END BOND
M  V30 BEGIN SGROUP
M  V30 1 SUP 1 ATOMS=(9 71 72 73 74 75 76 77 78 79) XBONDS=(2 87 88) SAP=(3 79 -
M  V30 0 Cx) SAP=(3 71 1 Al) SAP=(3 73 70 Br) LABEL=K ESTATE=E SEQID=1
M  V30 2 DAT 2 ATOMS=(9 71 72 73 74 75 76 77 78 79) -
M  V30 FIELDNAME="SMMX:sequence position data" -
M  V30 FIELDDISP="   12.6986   -9.1179    DA    ALL  1       0"
M  V30 3 DAT 3 PARENT=1 FIELDNAME=SMMX:class -
M  V30 FIELDDISP="    0.0000    0.0000    DR    ALL  1       0" FIELDDATA=MODAA
M  V30 END SGROUP
M  V30 BEGIN COLLECTION
M  V30 MDLV30/STEABS ATOMS=(3 52 72 104)
M  V30 END COLLECTION
M  V30 END CTAB
M  END
>  <GSRS_JSON>
{"uuid":"162f66e1-1270-4c6b-989a-3e78d41447dc","created":1423601538000,"createdBy":"YULIA.BORODINA","lastEdited":1441127543000,"lastEditedBy":"YULIA.BORODINA","deprecated":false,"definitionType":"PRIMARY","definitionLevel":"COMPLETE","substanceClass":"protein","status":"approved","version":"1","approvedBy":"SWITZERF","approved":1424870469000,"names":[{"uuid":"c211577b-0b9e-4a6e-8486-ebfc7f19c6b7","created":1472581784001,"createdBy":"SWITZERF","lastEdited":1472581784001,"lastEditedBy":"SWITZERF","deprecated":false,"name":"IMMU-132","type":"cd","domains":[],"languages":["en"],"nameJurisdiction":[],"nameOrgs":[],"preferred":false,"displayName":false,"references":["e214aed7-c2c3-4da2-bf7e-94fa2a0026e6","72172dac-3245-46ba-a50d-d0bf8c3aec06","a492ce6f-052c-4b32-9708-3b076dc8cd57"],"access":[],"_self":"/ginas/app/api/v1/names(c211577b-0b9e-4a6e-8486-ebfc7f19c6b7)?view\u003dfull"},{"uuid":"325f57c1-aaad-4ff3-ad4d-447212f261a9","created":1423601806001,"createdBy":"YULIA.BORODINA","lastEdited":1423601806001,"lastEditedBy":"YULIA.BORODINA","deprecated":false,"name":"IMMUNOGLOBULIN G1, ANTI-(HUMAN TUMOR-ASSOCIATED CALCIUM SIGNAL TRANSDUCER 2) (HUMAN-MUS MUSCULUS MONOCLONAL HRS7 HEAVY CHAIN), DISULFIDE WITH HUMAN-MUS MUSCULUS MONOCLONAL HRS7 K-CHAIN, DIMER, HEXAKIS(THIOETHER) WITH ( 4S)-4-((((4-(((2 S)-2 -( 4-AM INOBUTYL )-2 -((2 -(2 -((26-(4-((((4-( (3-MERCA PTO-2,5-DIOXO-1-PYRROLIDINYL)METHYL)CYCLOHEXYL)CARBONYL)AMINO )METHYL)-1 H-1 ,2, 3-TRIAZOL-1-YL)-3,6,9, 12, 15,18,21 ,24-OCTAOXAHEXACOS-1-YL)AMINO)-2-OXOETHOXY)ACETYL)AMINO )-1-OXOETHYL)AMINO )PHENYL)METHOXY)CARBONYL)OXY)-4, 11-DIETHYL-9-HYDROXY-1 H-PYRANO(3\u0027,4\u0027:6, 7)INDOLIZINO(1 ,2-B)QUINOLINE-3, 14(4H, 12H)DIONE","type":"cn","domains":[],"languages":["en"],"nameJurisdiction":[],"nameOrgs":[],"preferred":false,"displayName":false,"references":["72172dac-3245-46ba-a50d-d0bf8c3aec06","a492ce6f-052c-4b32-9708-3b076dc8cd57","31b840f2-7ae3-4ee7-b809-385f34bca9e9"],"access":[],"_self":"/ginas/app/api/v1/names(325f57c1-aaad-4ff3-ad4d-447212f261a9)?view\u003dfull"},{"uuid":"5c2daa74-d5e0-45f5-9c69-78d1cf8ba6f9","created":1423601538001,"createdBy":"YULIA.BORODINA","lastEdited":1448310355001,"lastEditedBy":"MEHARIE.ANILEY","deprecated":false,"name":"SACITUZUMAB GOVITECAN","type":"of","domains":["drug"],"languages":["en"],"nameJurisdiction":[],"nameOrgs":[{"uuid":"7b1cee66-2d0e-41a5-949e-bcb342bbc5ca","created":1493466243472,"createdBy":"RAMEZ.GHAZZAOUI","lastEdited":1493466243472,"lastEditedBy":"RAMEZ.GHAZZAOUI","deprecated":false,"nameOrg":"INN","references":[],"access":[]},{"uuid":"504d0dde-ca57-4aa5-8454-d84aa7609ad2","created":1493466243472,"createdBy":"RAMEZ.GHAZZAOUI","lastEdited":1493466243472,"lastEditedBy":"RAMEZ.GHAZZAOUI","deprecated":false,"nameOrg":"USAN","references":[],"access":[]}],"preferred":true,"displayName":true,"references":["72172dac-3245-46ba-a50d-d0bf8c3aec06","a492ce6f-052c-4b32-9708-3b076dc8cd57","311295a8-432e-4625-8d13-4befc91c8777","47b48e01-c9d2-456f-b8de-e9853c8a76be","937f764d-5a6e-4a77-8cf1-6ab581cdce22","8820e455-46a3-4946-9a10-1cda7a5429cf","4de5a042-cf41-4b40-a690-6c00055993de","d20bd65a-bcf9-42c1-8a1e-0a6ef12385bf","7b873969-4216-4155-8484-c95d64ad2960"],"access":[],"_self":"/ginas/app/api/v1/names(5c2daa74-d5e0-45f5-9c69-78d1cf8ba6f9)?view\u003dfull"},{"uuid":"bec7a633-adf6-4f7e-880d-7da3b3be33a1","created":1434990272001,"createdBy":"SWITZERF","lastEdited":1434990272001,"lastEditedBy":"SWITZERF","deprecated":false,"name":"SACITUZUMAB GOVITECAN [USAN]","type":"cn","domains":[],"languages":["en"],"nameJurisdiction":[],"nameOrgs":[],"preferred":false,"displayName":false,"references":["72172dac-3245-46ba-a50d-d0bf8c3aec06","a492ce6f-052c-4b32-9708-3b076dc8cd57","7b873969-4216-4155-8484-c95d64ad2960"],"access":[],"_self":"/ginas/app/api/v1/names(bec7a633-adf6-4f7e-880d-7da3b3be33a1)?view\u003dfull"},{"uuid":"20e7618d-574b-42f0-9878-86128ed496e5","created":1445973950001,"createdBy":"SWITZERF","lastEdited":1445973950001,"lastEditedBy":"SWITZERF","deprecated":false,"name":"SACITUZUMAB GOVITECAN [WHO-DD]","type":"cn","domains":[],"languages":["en"],"nameJurisdiction":[],"nameOrgs":[],"preferred":false,"displayName":false,"references":["72172dac-3245-46ba-a50d-d0bf8c3aec06","a492ce6f-052c-4b32-9708-3b076dc8cd57","d20bd65a-bcf9-42c1-8a1e-0a6ef12385bf"],"access":[],"_self":"/ginas/app/api/v1/names(20e7618d-574b-42f0-9878-86128ed496e5)?view\u003dfull"},{"uuid":"e9473033-6fa4-4e80-9b3c-81e010d2ed95","created":1440540594001,"createdBy":"SWITZERF","lastEdited":1440540594001,"lastEditedBy":"SWITZERF","deprecated":false,"name":"SACITUZUMAB GOVITECAN [INN]","type":"cn","domains":[],"languages":["en"],"nameJurisdiction":[],"nameOrgs":[],"preferred":false,"displayName":false,"references":["72172dac-3245-46ba-a50d-d0bf8c3aec06","a492ce6f-052c-4b32-9708-3b076dc8cd57","311295a8-432e-4625-8d13-4befc91c8777"],"access":[],"_self":"/ginas/app/api/v1/names(e9473033-6fa4-4e80-9b3c-81e010d2ed95)?view\u003dfull"}],"codes":[{"uuid":"c3c74e2e-97a1-4997-86ca-d68bc7ee15b4","created":1493466243479,"createdBy":"RAMEZ.GHAZZAOUI","lastEdited":1493466243479,"lastEditedBy":"RAMEZ.GHAZZAOUI","deprecated":false,"codeSystem":"BDNUM","code":"1121035AA","type":"PRIMARY","references":["72172dac-3245-46ba-a50d-d0bf8c3aec06"],"access":["protected"],"_self":"/ginas/app/api/v1/codes(c3c74e2e-97a1-4997-86ca-d68bc7ee15b4)?view\u003dfull"},{"uuid":"a8ba7f3d-007d-4e3b-b9c4-570ac669b10d","created":0,"createdBy":"UNKNOWN","lastEdited":0,"lastEditedBy":"UNKNOWN","deprecated":false,"codeSystem":"PUBCHEM","code":"91668186","comments":"SWITZERF","type":"PRIMARY","url":"https://pubchem.ncbi.nlm.nih.gov/compound/91668186","references":["72172dac-3245-46ba-a50d-d0bf8c3aec06","5b15af70-ee96-47bc-be6f-f7023452f6dd"],"access":[],"_self":"/ginas/app/api/v1/codes(a8ba7f3d-007d-4e3b-b9c4-570ac669b10d)?view\u003dfull"},{"uuid":"aa1387b7-177a-4b2a-8cef-7ede3c24efc1","created":1484629200001,"createdBy":"CALLAHANL","lastEdited":1484629200001,"lastEditedBy":"CALLAHANL","deprecated":false,"codeSystem":"ChEMBL","code":"CHEMBL3545262","type":"PRIMARY","url":"https://www.ebi.ac.uk/chembl/compound/inspect/CHEMBL3545262","references":["72172dac-3245-46ba-a50d-d0bf8c3aec06","5b15af70-ee96-47bc-be6f-f7023452f6dd"],"access":[],"_self":"/ginas/app/api/v1/codes(aa1387b7-177a-4b2a-8cef-7ede3c24efc1)?view\u003dfull"},{"uuid":"0e659200-09df-4a43-8dda-69d18a5415af","created":1453126045001,"createdBy":"SWITZERF","lastEdited":1453126045001,"lastEditedBy":"SWITZERF","deprecated":false,"codeSystem":"NCI_THESAURUS","code":"C102783","type":"PRIMARY","url":"http://ncit.nci.nih.gov/ncitbrowser/ConceptReport.jsp?dictionary\u003dNCI%20Thesaurus\u0026code\u003dC102783","references":["72172dac-3245-46ba-a50d-d0bf8c3aec06","5b15af70-ee96-47bc-be6f-f7023452f6dd"],"access":[],"_self":"/ginas/app/api/v1/codes(0e659200-09df-4a43-8dda-69d18a5415af)?view\u003dfull"},{"uuid":"27d8d66b-c812-446d-b9cd-e4a2fafe7028","created":1440726126001,"createdBy":"SWITZERF","lastEdited":1440726126001,"lastEditedBy":"SWITZERF","deprecated":false,"codeSystem":"INN","code":"10097","type":"PRIMARY","url":"https://mednet-communities.net/inn/db/ViewINN.aspx?i\u003d10097","references":["72172dac-3245-46ba-a50d-d0bf8c3aec06","5b15af70-ee96-47bc-be6f-f7023452f6dd"],"access":[],"_self":"/ginas/app/api/v1/codes(27d8d66b-c812-446d-b9cd-e4a2fafe7028)?view\u003dfull"},{"uuid":"0a14f8e1-dc8f-4b8d-9939-751b95454f11","created":1423601538001,"createdBy":"YULIA.BORODINA","lastEdited":1423601538001,"lastEditedBy":"YULIA.BORODINA","deprecated":false,"codeSystem":"CAS","code":"1491917-83-9","type":"PRIMARY","url":"http://chem.sis.nlm.nih.gov/chemidplus/direct.jsp?regno\u003d1491917-83-9\u0026result\u003dadvanced","references":["72172dac-3245-46ba-a50d-d0bf8c3aec06","5b15af70-ee96-47bc-be6f-f7023452f6dd"],"access":[],"_self":"/ginas/app/api/v1/codes(0a14f8e1-dc8f-4b8d-9939-751b95454f11)?view\u003dfull"}],"modifications":{"uuid":"fa06944d-76b9-4c1a-88f6-12bc633bdc11","created":1493466243457,"createdBy":"RAMEZ.GHAZZAOUI","lastEdited":1493466243457,"lastEditedBy":"RAMEZ.GHAZZAOUI","deprecated":false,"agentModifications":[],"physicalModifications":[],"structuralModifications":[{"uuid":"0e030ad3-8da5-42b4-89dc-8fdf26e69e25","created":1493466243459,"createdBy":"RAMEZ.GHAZZAOUI","lastEdited":1493466243459,"lastEditedBy":"RAMEZ.GHAZZAOUI","deprecated":false,"structuralModificationType":"AMINO ACID SUBSTITUTION","extent":"PARTIAL","extentAmount":{"uuid":"104a0bd5-1e9b-4dc7-9cc7-8119e716b6af","created":1493466243458,"createdBy":"RAMEZ.GHAZZAOUI","lastEdited":1493466243458,"lastEditedBy":"RAMEZ.GHAZZAOUI","deprecated":false,"type":"probability","nonNumericValue":"[6/32]","references":[],"access":[]},"sites":[{"subunitIndex":1,"residueIndex":22},{"subunitIndex":1,"residueIndex":96},{"subunitIndex":1,"residueIndex":148},{"subunitIndex":1,"residueIndex":204},{"subunitIndex":1,"residueIndex":224},{"subunitIndex":1,"residueIndex":230},{"subunitIndex":1,"residueIndex":233},{"subunitIndex":1,"residueIndex":265},{"subunitIndex":1,"residueIndex":325},{"subunitIndex":1,"residueIndex":371},{"subunitIndex":1,"residueIndex":429},{"subunitIndex":2,"residueIndex":22},{"subunitIndex":2,"residueIndex":96},{"subunitIndex":2,"residueIndex":148},{"subunitIndex":2,"residueIndex":204},{"subunitIndex":2,"residueIndex":224},{"subunitIndex":2,"residueIndex":230},{"subunitIndex":2,"residueIndex":233},{"subunitIndex":2,"residueIndex":265},{"subunitIndex":2,"residueIndex":325},{"subunitIndex":2,"residueIndex":371},{"subunitIndex":2,"residueIndex":429},{"subunitIndex":3,"residueIndex":23},{"subunitIndex":3,"residueIndex":88},{"subunitIndex":3,"residueIndex":134},{"subunitIndex":3,"residueIndex":194},{"subunitIndex":3,"residueIndex":214},{"subunitIndex":4,"residueIndex":23},{"subunitIndex":4,"residueIndex":88},{"subunitIndex":4,"residueIndex":134},{"subunitIndex":4,"residueIndex":194},{"subunitIndex":4,"residueIndex":214}],"references":[],"access":[]}],"references":[],"access":[]},"notes":[{"uuid":"34eda601-9981-4cb1-8622-2f1f7fa7210e","created":1493466243482,"createdBy":"RAMEZ.GHAZZAOUI","lastEdited":1493466243482,"lastEditedBy":"RAMEZ.GHAZZAOUI","deprecated":false,"note":"[Validation]WARNING:Protein has no molecular weight, defaulting to calculated value of: 145552.10","references":["cdac201f-fb27-4cb8-a330-b2c252d1f15b"],"access":["admin"]},{"uuid":"91211eae-a39e-4211-97ba-6a33b2e128a0","created":1493466243481,"createdBy":"RAMEZ.GHAZZAOUI","lastEdited":1493466243481,"lastEditedBy":"RAMEZ.GHAZZAOUI","deprecated":false,"note":"Legacy Molfile:\n  Symyx   04271720242D 1   1.00000     0.00000     0\n\n  0  0  0     0  0            999 V3000\nM  V30 BEGIN CTAB\nM  V30 COUNTS 113 121 3 0 1\nM  V30 BEGIN ATOM\nM  V30 1 C 7.064 -13.9021 0 0\nM  V30 2 C 7.9619 -13.5616 0 0\nM  V30 3 O 8.9847 -14.1521 0 0\nM  V30 4 C 10.0076 -13.5616 0 0\nM  V30 5 C 11.0305 -14.1521 0 0\nM  V30 6 N 12.0533 -13.5616 0 0\nM  V30 7 C 13.0762 -14.1521 0 0\nM  V30 8 C 14.0991 -13.5616 0 0\nM  V30 9 O 15.1219 -14.1521 0 0\nM  V30 10 O 6.939 -15.3332 0 0\nM  V30 11 O 11.0305 -15.3332 0 0\nM  V30 12 C 16.1448 -13.5616 0 0\nM  V30 13 C 17.1677 -14.1521 0 0\nM  V30 14 O 18.1905 -13.5616 0 0\nM  V30 15 C 19.2134 -14.1521 0 0\nM  V30 16 C 20.2363 -13.5616 0 0\nM  V30 17 O 21.2591 -14.1521 0 0\nM  V30 18 C 22.282 -13.5616 0 0\nM  V30 19 C 23.3048 -14.1521 0 0\nM  V30 20 O 24.3277 -13.5616 0 0\nM  V30 21 C 24.3277 -12.3805 0 0\nM  V30 22 C 23.3048 -11.7899 0 0\nM  V30 23 O 22.282 -12.3805 0 0\nM  V30 24 C 21.2591 -11.7899 0 0\nM  V30 25 C 20.2363 -12.3805 0 0\nM  V30 26 O 19.2134 -11.7899 0 0\nM  V30 27 C 18.1905 -12.3805 0 0\nM  V30 28 O 16.1448 -12.3805 0 0\nM  V30 29 C 15.1219 -11.7899 0 0\nM  V30 30 C 14.0991 -12.3805 0 0\nM  V30 31 O 13.0762 -11.7899 0 0\nM  V30 32 C 7.1571 -6.1491 0 0\nM  V30 33 C 8.3383 -6.1491 0 0\nM  V30 34 C 8.9261 -7.1694 0 0\nM  V30 35 C 8.3354 -8.1949 0 0\nM  V30 36 C 7.1602 -8.1949 0 0\nM  V30 37 C 6.5639 -7.176 0 0\nM  V30 38 C 8.9269 -5.1341 0 0\nM  V30 39 C 10.1047 -5.1341 0 0\nM  V30 40 C 10.6918 -6.1481 0 0\nM  V30 41 N 10.1086 -7.1694 0 0\nM  V30 42 C 10.9148 -4.2546 0 0\nM  V30 43 N 11.9583 -4.7228 0 0 CFG\u003d3\nM  V30 44 C 11.8287 -5.8931 0 0\nM  V30 45 C 13.0337 -4.252 0 0\nM  V30 46 C 13.9828 -4.9493 0 0\nM  V30 47 C 13.8565 -6.114 0 0\nM  V30 48 C 12.7817 -6.5932 0 0\nM  V30 49 C 15.0548 -4.4763 0 0\nM  V30 50 O 16.0003 -5.1682 0 0\nM  V30 51 C 15.8739 -6.333 0 0\nM  V30 52 C 14.802 -6.8059 0 0 CFG\u003d1\nM  V30 53 C 8.3363 -4.1105 0 0\nM  V30 54 C 8.9269 -3.0877 0 0\nM  V30 55 O 5.3828 -7.176 0 0\nM  V30 56 O 13.9669 -7.641 0 0\nM  V30 57 C 14.2726 -8.7819 0 0\nM  V30 58 O 13.4374 -9.617 0 0\nM  V30 59 C 15.3926 -7.8287 0 0\nM  V30 60 C 16.5737 -7.8287 0 0\nM  V30 61 O 15.4134 -9.0876 0 0\nM  V30 62 C 12.4145 -9.0265 0 0\nM  V30 63 C 11.3917 -9.617 0 0\nM  V30 64 O 16.8968 -6.9235 0 0\nM  V30 65 C 11.3917 -10.7981 0 0\nM  V30 66 C 10.371 -11.386 0 0\nM  V30 67 C 9.3478 -10.7952 0 0\nM  V30 68 C 9.3478 -9.62 0 0\nM  V30 69 C 10.3644 -9.024 0 0\nM  V30 70 N 8.3256 -11.3853 0 0\nM  V30 71 N 6.2812 -12.5656 0 0\nM  V30 72 C 6.2813 -11.3853 0 0 CFG\u003d2\nM  V30 73 C 7.3035 -10.7952 0 0\nM  V30 74 O 7.3035 -9.6149 0 0\nM  V30 75 C 5.2591 -10.7951 0 0\nM  V30 76 C 4.237 -11.3853 0 0\nM  V30 77 C 3.2148 -10.7951 0 0\nM  V30 78 C 2.1927 -11.3852 0 0\nM  V30 79 N 1.1705 -10.7951 0 0\nM  V30 80 N 17.6525 -9.4212 0 0\nM  V30 81 N 16.4968 -9.6089 0 0\nM  V30 82 C 18.1928 -10.4669 0 0\nM  V30 83 C 17.3711 -11.3009 0 0\nM  V30 84 C 19.2156 -11.0574 0 0\nM  V30 85 N 20.2385 -10.4669 0 0\nM  V30 86 C 20.2385 -9.2858 0 0\nM  V30 87 C 21.2614 -8.6952 0 0 CFG\u003d3\nM  V30 88 C 22.2842 -9.2858 0 0\nM  V30 89 C 23.3071 -8.6952 0 0\nM  V30 90 C 23.3071 -7.5142 0 0 CFG\u003d3\nM  V30 91 C 22.2842 -6.9236 0 0\nM  V30 92 C 21.2613 -7.5141 0 0\nM  V30 93 O 19.2156 -8.6952 0 0\nM  V30 94 C 24.4479 -7.2085 0 0\nM  V30 95 N 24.7536 -6.0676 0 0 CFG\u003d3\nM  V30 96 C 23.9185 -5.2325 0 0\nM  V30 97 C 25.7948 -5.5241 0 0\nM  V30 98 C 24.4791 -4.1654 0 0 CFG\u003d3\nM  V30 99 C 25.6172 -4.3505 0 0\nM  V30 100 O 22.7776 -5.5382 0 0\nM  V30 101 O 26.8177 -6.1147 0 0\nM  V30 102 S 23.4563 -3.5748 0 0\nM  V30 103 C 22.4334 -4.1654 0 0\nM  V30 104 C 21.4106 -3.5748 0 0 CFG\u003d2\nM  V30 105 N 20.3877 -4.1654 0 0\nM  V30 106 N 16.5634 -10.7755 0 0 CFG\u003d3\nM  V30 107 C 17.1677 -11.7899 0 0\nM  V30 108 C 15.1604 -10.7671 0 0\nM  V30 109 C 14.448 -11.3921 0 0\nM  V30 110 C 21.4106 -2.3937 0 0\nM  V30 111 O 20.3877 -1.8032 0 0\nM  V30 112 O 22.4334 -1.8032 0 0\nM  V30 113 O 13.0337 -3.0709 0 0\nM  V30 END ATOM\nM  V30 BEGIN BOND\nM  V30 1 1 1 2\nM  V30 2 1 2 3\nM  V30 3 1 3 4\nM  V30 4 1 4 5\nM  V30 5 1 5 6\nM  V30 6 1 6 7\nM  V30 7 1 7 8\nM  V30 8 1 8 9\nM  V30 9 2 1 10\nM  V30 10 2 5 11\nM  V30 11 1 9 12\nM  V30 12 1 12 13\nM  V30 13 1 13 14\nM  V30 14 1 14 15\nM  V30 15 1 16 17\nM  V30 16 1 17 18\nM  V30 17 1 18 19\nM  V30 18 1 19 20\nM  V30 19 1 20 21\nM  V30 20 1 21 22\nM  V30 21 1 22 23\nM  V30 22 1 23 24\nM  V30 23 1 24 25\nM  V30 24 1 25 26\nM  V30 25 1 15 16\nM  V30 26 1 26 27\nM  V30 27 1 27 107\nM  V30 28 1 107 28\nM  V30 29 1 28 29\nM  V30 30 1 29 30\nM  V30 31 1 30 31\nM  V30 32 1 31 109\nM  V30 33 1 109 108\nM  V30 34 1 108 106\nM  V30 35 2 33 32\nM  V30 36 1 34 33\nM  V30 37 2 35 34\nM  V30 38 1 36 35\nM  V30 39 2 37 36\nM  V30 40 1 32 37\nM  V30 41 2 39 38\nM  V30 42 1 40 39\nM  V30 43 2 41 40\nM  V30 44 1 34 41\nM  V30 45 1 33 38\nM  V30 46 1 42 43\nM  V30 47 1 44 43\nM  V30 48 1 40 44\nM  V30 49 1 39 42\nM  V30 50 1 46 45\nM  V30 51 2 47 46\nM  V30 52 1 48 47\nM  V30 53 2 44 48\nM  V30 54 1 43 45\nM  V30 55 1 50 49\nM  V30 56 1 51 50\nM  V30 57 1 52 51\nM  V30 58 1 47 52\nM  V30 59 1 46 49\nM  V30 60 1 38 53\nM  V30 61 1 53 54\nM  V30 62 1 37 55\nM  V30 63 1 52 56 CFG\u003d1\nM  V30 64 1 56 57\nM  V30 65 1 57 58\nM  V30 66 1 52 59\nM  V30 67 1 59 60\nM  V30 68 2 57 61\nM  V30 69 1 58 62\nM  V30 70 1 62 63\nM  V30 71 2 51 64\nM  V30 72 1 66 65\nM  V30 73 2 67 66\nM  V30 74 1 68 67\nM  V30 75 2 69 68\nM  V30 76 2 65 63\nM  V30 77 1 63 69\nM  V30 78 1 67 70\nM  V30 79 1 71 72\nM  V30 80 1 72 73\nM  V30 81 2 73 74\nM  V30 82 1 72 75 CFG\u003d1\nM  V30 83 1 75 76\nM  V30 84 1 76 77\nM  V30 85 1 77 78\nM  V30 86 1 78 79\nM  V30 87 1 73 70\nM  V30 88 1 1 71\nM  V30 89 2 83 82\nM  V30 90 1 82 80\nM  V30 91 2 80 81\nM  V30 92 1 83 106\nM  V30 93 1 81 106\nM  V30 94 1 82 84\nM  V30 95 1 84 85\nM  V30 96 1 85 86\nM  V30 97 1 86 87\nM  V30 98 1 91 92\nM  V30 99 1 90 91\nM  V30 100 1 89 90\nM  V30 101 1 88 89\nM  V30 102 1 92 87\nM  V30 103 1 87 88\nM  V30 104 2 86 93\nM  V30 105 1 90 94\nM  V30 106 1 94 95\nM  V30 107 1 98 99\nM  V30 108 1 97 99\nM  V30 109 1 96 98\nM  V30 110 1 96 95\nM  V30 111 1 95 97\nM  V30 112 2 96 100\nM  V30 113 2 97 101\nM  V30 114 1 98 102\nM  V30 115 1 102 103\nM  V30 116 1 104 103 CFG\u003d3\nM  V30 117 1 104 105\nM  V30 118 1 104 110\nM  V30 119 1 110 111\nM  V30 120 2 110 112\nM  V30 121 2 45 113\nM  V30 END BOND\nM  V30 BEGIN SGROUP\nM  V30 1 SUP 1 ATOMS\u003d(9 71 72 73 74 75 76 77 78 79) XBONDS\u003d(2 87 88) SAP\u003d(3 79 -\nM  V30 0 Cx) SAP\u003d(3 71 1 Al) SAP\u003d(3 73 70 Br) LABEL\u003dK ESTATE\u003dE SEQID\u003d1\nM  V30 2 DAT 2 ATOMS\u003d(9 71 72 73 74 75 76 77 78 79) -\nM  V30 FIELDNAME\u003d\"SMMX:sequence position data\" -\nM  V30 FIELDDISP\u003d\"   12.6986   -9.1179    DA    ALL  1       0\"\nM  V30 3 DAT 3 PARENT\u003d1 FIELDNAME\u003dSMMX:class -\nM  V30 FIELDDISP\u003d\"    0.0000    0.0000    DR    ALL  1       0\" FIELDDATA\u003dMODAA\nM  V30 END SGROUP\nM  V30 BEGIN COLLECTION\nM  V30 MDLV30/STEABS ATOMS\u003d(3 52 72 104)\nM  V30 END COLLECTION\nM  V30 END CTAB\nM  END\n","references":[],"access":[]},{"uuid":"012b9dc9-f93f-4054-9868-83b89af20a99","created":1493466243480,"createdBy":"RAMEZ.GHAZZAOUI","lastEdited":1493466243480,"lastEditedBy":"RAMEZ.GHAZZAOUI","deprecated":false,"note":"LEGACY XML:\u003cPROTEIN\u003e\n \u003cSEQUENCE_TYPE\u003eCOMPLETE\u003c/SEQUENCE_TYPE\u003e\n \u003cNUMBER_OF_SUBUNITS\u003e4\u003c/NUMBER_OF_SUBUNITS\u003e\n\u003cSUBUNIT_GROUP\u003e\n \u003cSUBUNIT\u003e1\u003c/SUBUNIT\u003e\n \u003cLENGTH\u003e451\u003c/LENGTH\u003e\n \u003cSEQUENCE\u003eQVQLQQSGSELKKPGASVKVSCKASGYTFTNYGMNWVKQAPGQGLKWMGWINTYTGEPTYTDDFKGRFAFSLDTSVSTAYLQISSLKADDTAVYFCARGGFGSSYWYFDVWGQGSLVTVSSASTKGPSVFPLAPSSKSTSGGTAALGCLVKDYFPEPVTVSWNSGALTSGVHTFPAVLQSSGLYSLSSVVTVPSSSLGTQTYICNVNHKPSNTKVDKRVEPKSCDKTHTCPPCPAPELLGGPSVFLFPPKPKDTLMISRTPEVTCVVVDVSHEDPEVKFNWYVDGVEVHNAKTKPREEQYNSTYRVVSVLTVLHQDWLNGKEYKCKVSNKALPAPIEKTISKAKGQPREPQVYTLPPSREEMTKNQVSLTCLVKGFYPSDIAVEWESNGQPENNYKTTPPVLDSDGSFFLYSKLTVDKSRWQQGNVFSCSVMHEALHNHYTQKSLSLSPGK\u003c/SEQUENCE\u003e\n \u003c/SUBUNIT_GROUP\u003e\n\u003cSUBUNIT_GROUP\u003e\n \u003cSUBUNIT\u003e2\u003c/SUBUNIT\u003e\n \u003cLENGTH\u003e451\u003c/LENGTH\u003e\n \u003cSEQUENCE\u003eQVQLQQSGSELKKPGASVKVSCKASGYTFTNYGMNWVKQAPGQGLKWMGWINTYTGEPTYTDDFKGRFAFSLDTSVSTAYLQISSLKADDTAVYFCARGGFGSSYWYFDVWGQGSLVTVSSASTKGPSVFPLAPSSKSTSGGTAALGCLVKDYFPEPVTVSWNSGALTSGVHTFPAVLQSSGLYSLSSVVTVPSSSLGTQTYICNVNHKPSNTKVDKRVEPKSCDKTHTCPPCPAPELLGGPSVFLFPPKPKDTLMISRTPEVTCVVVDVSHEDPEVKFNWYVDGVEVHNAKTKPREEQYNSTYRVVSVLTVLHQDWLNGKEYKCKVSNKALPAPIEKTISKAKGQPREPQVYTLPPSREEMTKNQVSLTCLVKGFYPSDIAVEWESNGQPENNYKTTPPVLDSDGSFFLYSKLTVDKSRWQQGNVFSCSVMHEALHNHYTQKSLSLSPGK\u003c/SEQUENCE\u003e\n \u003c/SUBUNIT_GROUP\u003e\n\u003cSUBUNIT_GROUP\u003e\n \u003cSUBUNIT\u003e3\u003c/SUBUNIT\u003e\n \u003cLENGTH\u003e214\u003c/LENGTH\u003e\n \u003cSEQUENCE\u003eDIQLTQSPSSLSASVGDRVSITCKASQDVSIAVAWYQQKPGKAPKLLIYSASYRYTGVPDRFSGSGSGTDFTLTISSLQPEDFAVYYCQQHYITPLTFGAGTKVEIKRTVAAPSVFIFPPSDEQLKSGTASVVCLLNNFYPREAKVQWKVDNALQSGNSQESVTEQDSKDSTYSLSSTLTLSKADYEKHKVYACEVTHQGLSSPVTKSFNRGEC\u003c/SEQUENCE\u003e\n \u003c/SUBUNIT_GROUP\u003e\n\u003cSUBUNIT_GROUP\u003e\n \u003cSUBUNIT\u003e4\u003c/SUBUNIT\u003e\n \u003cLENGTH\u003e214\u003c/LENGTH\u003e\n \u003cSEQUENCE\u003eDIQLTQSPSSLSASVGDRVSITCKASQDVSIAVAWYQQKPGKAPKLLIYSASYRYTGVPDRFSGSGSGTDFTLTISSLQPEDFAVYYCQQHYITPLTFGAGTKVEIKRTVAAPSVFIFPPSDEQLKSGTASVVCLLNNFYPREAKVQWKVDNALQSGNSQESVTEQDSKDSTYSLSSTLTLSKADYEKHKVYACEVTHQGLSSPVTKSFNRGEC\u003c/SEQUENCE\u003e\n \u003c/SUBUNIT_GROUP\u003e\n \u003cDISULFIDE_LINKAGE\u003e1_22-1_96; 1_148-1_204; 1_224-3_214; 1_230-2_230; 1_233-2_233; 1_265-1_325; 1_371-1_429; 2_22-2_96; 2_148-2_204; 2_224-4_214; 2_265-2_325; 2_371-2_429; 3_23-3_88; 3_134-3_194; 4_23-4_88; 4_134-4_194\u003c/DISULFIDE_LINKAGE\u003e\n\u003cGLYCOSYLATION\u003e\n \u003cGLYCOSYLATION_TYPE\u003eMAMMALIAN\u003c/GLYCOSYLATION_TYPE\u003e\n \u003cN_GLYCOSYLATION\u003e1_301; 2_301\u003c/N_GLYCOSYLATION\u003e\n \u003cO_GLYCOSYLATION/\u003e\n \u003cC_GLYCOSYLATION/\u003e\n \u003c/GLYCOSYLATION\u003e\n\u003cMODIFICATION_GROUP\u003e\n\u003cPHYSICAL_MODIFICATION_GROUP\u003e\n \u003cROLE/\u003e\n \u003cNUMBER_OF_PARAMETERS\u003e0\u003c/NUMBER_OF_PARAMETERS\u003e\n\u003cPARAMETER_GROUP\u003e\n \u003cPARAMETER/\u003e\n\u003cAMOUNT\u003e\n \u003cAVERAGE/\u003e\n \u003cLOW_LIMIT/\u003e\n \u003cHIGH_LIMIT/\u003e\n \u003cUNIT/\u003e\n \u003cNON_NUMERIC_VALUE/\u003e\n \u003c/AMOUNT\u003e\n \u003c/PARAMETER_GROUP\u003e\n \u003c/PHYSICAL_MODIFICATION_GROUP\u003e\n\u003cAGENT_MODIFICATION_GROUP\u003e\n \u003cAGENT_MODIFICATION_TYPE/\u003e\n \u003cROLE/\u003e\n \u003cMODIFICATION_AGENT/\u003e\n \u003cMODIFICATION_AGENT_ID/\u003e\n \u003cMODIFICATION_PROCESS/\u003e\n \u003cAMOUNT_TYPE/\u003e\n\u003cAMOUNT\u003e\n \u003cAVERAGE/\u003e\n \u003cLOW_LIMIT/\u003e\n \u003cHIGH_LIMIT/\u003e\n \u003cUNIT/\u003e\n \u003cNON_NUMERIC_VALUE/\u003e\n \u003c/AMOUNT\u003e\n \u003c/AGENT_MODIFICATION_GROUP\u003e\n\u003cSTRUCTURAL_MODIFICATION_GROUP\u003e\n \u003cRESIDUE_MODIFIED/\u003e\n \u003cRESIDUE_SITE\u003e1_22; 1_96; 1_148; 1_204; 1_224; 3_214; 1_230; 2_230; 1_233; 2_233; 1_265; 1_325; 1_371; 1_429; 2_22; 2_96; 2_148; 2_204; 2_224; 4_214; 2_265; 2_325; 2_371; 2_429; 3_23; 3_88; 3_134; 3_194; 4_23; 4_88; 4_134; 4_194\u003c/RESIDUE_SITE\u003e\n \u003cNUMBER_OF_FRAGMENTS_MOIETIES/\u003e\n \u003cAMOUNT_TYPE\u003eprobability\u003c/AMOUNT_TYPE\u003e\n\u003cMOLECULAR_FRAGMENT_MOIETY\u003e\n \u003cSTRUCTURAL_MODIFICATION_TYPE/\u003e\n \u003cROLE\u003eAMINO ACID SUBSTITUTION\u003c/ROLE\u003e\n \u003cFRAGMENT_NUMBER/\u003e\n \u003cMOLECULAR_FRAGMENT_NAME/\u003e\n \u003cMOLECULAR_FRAGMENT_ID/\u003e\n \u003cMOLECULAR_FRAGMENT_INCHI/\u003e\n \u003cFRAGMENT_CONNECTIVTY\u003e105; 110\u003c/FRAGMENT_CONNECTIVTY\u003e\n \u003cMOLFILE external\u003d\"1\"/\u003e\n\u003cAMOUNT\u003e\n \u003cAVERAGE\u003e6/32\u003c/AVERAGE\u003e\n \u003cLOW_LIMIT/\u003e\n \u003cHIGH_LIMIT/\u003e\n \u003cUNIT/\u003e\n \u003cNON_NUMERIC_VALUE/\u003e\n \u003c/AMOUNT\u003e\n \u003c/MOLECULAR_FRAGMENT_MOIETY\u003e\n \u003c/STRUCTURAL_MODIFICATION_GROUP\u003e\n \u003c/MODIFICATION_GROUP\u003e\n \u003cCOMMENTS/\u003e\n \u003cPUBLIC_DOMAIN/\u003e\n \u003c/PROTEIN\u003e","references":["e6229a04-1440-46a4-87f8-4749d8e0617c"],"access":["protected"]},{"uuid":"d8489de7-f10e-4e5c-b9d8-820761335f1d","created":1493466243480,"createdBy":"RAMEZ.GHAZZAOUI","lastEdited":1493466243480,"lastEditedBy":"RAMEZ.GHAZZAOUI","deprecated":false,"note":"Legacy Info:\u003cSRS_LEGACY_DATA\u003e\u003cCREATED_BY\u003eYULIA.BORODINA\u003c/CREATED_BY\u003e\u003cCREATED_DATE\u003e2015-02-10 15:52:18.0\u003c/CREATED_DATE\u003e\u003cMODIFIED_BY\u003eYULIA.BORODINA\u003c/MODIFIED_BY\u003e\u003cMODIFIED_DATE\u003e2015-09-01 13:12:23.0\u003c/MODIFIED_DATE\u003e\u003cAPPROVED_BY\u003eSWITZERF\u003c/APPROVED_BY\u003e\u003cAPPROVED_DATE\u003e2015-02-25 08:21:09.0\u003c/APPROVED_DATE\u003e\u003c/SRS_LEGACY_DATA\u003e","references":["e6229a04-1440-46a4-87f8-4749d8e0617c"],"access":["protected"]}],"properties":[{"uuid":"f24db6c8-bd9c-4224-b625-2c377f668769","created":1493466243484,"createdBy":"RAMEZ.GHAZZAOUI","lastEdited":1493466243484,"lastEditedBy":"RAMEZ.GHAZZAOUI","deprecated":false,"name":"MOL_WEIGHT:NUMBER(CALCULATED)","type":"amount","propertyType":"CHEMICAL","value":{"uuid":"14cbe4c0-a34f-4f67-a555-e270761a38b4","created":1493466243483,"createdBy":"RAMEZ.GHAZZAOUI","lastEdited":1493466243483,"lastEditedBy":"RAMEZ.GHAZZAOUI","deprecated":false,"type":"ESTIMATED","average":146000.0,"units":"Da","references":[],"access":[]},"parameters":[],"references":[],"access":[],"defining":false}],"relationships":[{"uuid":"61eb78f8-e718-46b7-b8bc-a9ad8fb6bcdf","created":1434990162001,"createdBy":"SWITZERF","lastEdited":1434990162001,"lastEditedBy":"SWITZERF","deprecated":false,"relatedSubstance":{"uuid":"56ad2d9c-7bd6-40ec-9e5f-7594e774c9e1","created":1.493466243484E12,"createdBy":"RAMEZ.GHAZZAOUI","lastEdited":1.493466243484E12,"lastEditedBy":"RAMEZ.GHAZZAOUI","deprecated":false,"refPname":"SACITUZUMAB GOVITECAN","refuuid":"162f66e1-1270-4c6b-989a-3e78d41447dc","substanceClass":"reference","approvalID":"M9BYU8XDQ6","name":"SACITUZUMAB GOVITECAN","linkingID":"M9BYU8XDQ6","references":[],"access":[]},"originatorUuid":"61eb78f8-e718-46b7-b8bc-a9ad8fb6bcdf","type":"ACTIVE MOIETY","references":["f770ab41-4a60-4592-9c95-4e447545e543"],"access":["protected"]}],"references":[{"uuid":"cdac201f-fb27-4cb8-a330-b2c252d1f15b","created":1493466243494,"createdBy":"RAMEZ.GHAZZAOUI","lastEdited":1493466243494,"lastEditedBy":"RAMEZ.GHAZZAOUI","deprecated":false,"citation":"GSRS System-generated Validation messages","docType":"VALIDATION_MESSAGE","documentDate":1493466243325,"publicDomain":false,"tags":[],"access":["admin"],"_self":"/ginas/app/api/v1/references(cdac201f-fb27-4cb8-a330-b2c252d1f15b)?view\u003dfull"},{"uuid":"b44872ed-dea0-4a90-b02e-995ac2170dec","created":1493466243494,"createdBy":"RAMEZ.GHAZZAOUI","lastEdited":1493466243494,"lastEditedBy":"RAMEZ.GHAZZAOUI","deprecated":false,"citation":"jsonDump-2017-04-28--all-but-first-500-records.txt.zip","docType":"BATCH_IMPORT","documentDate":1493466211133,"publicDomain":false,"tags":[],"id":"773bab31c7fb3258757b","access":[],"_self":"/ginas/app/api/v1/references(b44872ed-dea0-4a90-b02e-995ac2170dec)?view\u003dfull"},{"uuid":"8820e455-46a3-4946-9a10-1cda7a5429cf","created":1493466243493,"createdBy":"RAMEZ.GHAZZAOUI","lastEdited":1493466243493,"lastEditedBy":"RAMEZ.GHAZZAOUI","deprecated":false,"citation":"SACITUZUMAB GOVITECAN [USAN]","docType":"SRS_LOCATOR","publicDomain":true,"tags":[],"access":[],"_self":"/ginas/app/api/v1/references(8820e455-46a3-4946-9a10-1cda7a5429cf)?view\u003dfull"},{"uuid":"47b48e01-c9d2-456f-b8de-e9853c8a76be","created":1493466243493,"createdBy":"RAMEZ.GHAZZAOUI","lastEdited":1493466243493,"lastEditedBy":"RAMEZ.GHAZZAOUI","deprecated":false,"citation":"SACITUZUMAB GOVITECAN [WHO-DD]","docType":"SRS_LOCATOR","publicDomain":true,"tags":[],"access":[],"_self":"/ginas/app/api/v1/references(47b48e01-c9d2-456f-b8de-e9853c8a76be)?view\u003dfull"},{"uuid":"4de5a042-cf41-4b40-a690-6c00055993de","created":1493466243492,"createdBy":"RAMEZ.GHAZZAOUI","lastEdited":1493466243492,"lastEditedBy":"RAMEZ.GHAZZAOUI","deprecated":false,"citation":"SACITUZUMAB GOVITECAN [INN]","docType":"SRS_LOCATOR","publicDomain":true,"tags":[],"access":[],"_self":"/ginas/app/api/v1/references(4de5a042-cf41-4b40-a690-6c00055993de)?view\u003dfull"},{"uuid":"e6229a04-1440-46a4-87f8-4749d8e0617c","created":1493466243492,"createdBy":"RAMEZ.GHAZZAOUI","lastEdited":1493466243492,"lastEditedBy":"RAMEZ.GHAZZAOUI","deprecated":false,"citation":"SRS import [M9BYU8XDQ6]","docType":"SRS","documentDate":1493392279000,"publicDomain":true,"tags":["NOMEN"],"url":"http://fdasis.nlm.nih.gov/srs/srsdirect.jsp?regno\u003dM9BYU8XDQ6","access":[],"_self":"/ginas/app/api/v1/references(e6229a04-1440-46a4-87f8-4749d8e0617c)?view\u003dfull"},{"uuid":"f770ab41-4a60-4592-9c95-4e447545e543","created":1493466243491,"createdBy":"RAMEZ.GHAZZAOUI","lastEdited":1493466243491,"lastEditedBy":"RAMEZ.GHAZZAOUI","deprecated":false,"citation":"1121035AA-\u003e[]-\u003e1121035AA","docType":"BDNUM","publicDomain":false,"tags":["NOMEN"],"access":["protected"],"_self":"/ginas/app/api/v1/references(f770ab41-4a60-4592-9c95-4e447545e543)?view\u003dfull"},{"uuid":"5b15af70-ee96-47bc-be6f-f7023452f6dd","created":1493466243491,"createdBy":"RAMEZ.GHAZZAOUI","lastEdited":1493466243491,"lastEditedBy":"RAMEZ.GHAZZAOUI","deprecated":false,"citation":"SRS CODE IMPORT","docType":"SRS","documentDate":1493392279000,"publicDomain":true,"tags":["NOMEN"],"access":[],"_self":"/ginas/app/api/v1/references(5b15af70-ee96-47bc-be6f-f7023452f6dd)?view\u003dfull"},{"uuid":"e214aed7-c2c3-4da2-bf7e-94fa2a0026e6","created":1493466243490,"createdBy":"RAMEZ.GHAZZAOUI","lastEdited":1493466243490,"lastEditedBy":"RAMEZ.GHAZZAOUI","deprecated":false,"citation":"USP DICTIONARY","docType":"SRS","publicDomain":true,"tags":["NOMEN"],"access":[],"_self":"/ginas/app/api/v1/references(e214aed7-c2c3-4da2-bf7e-94fa2a0026e6)?view\u003dfull"},{"uuid":"31b840f2-7ae3-4ee7-b809-385f34bca9e9","created":1493466243489,"createdBy":"RAMEZ.GHAZZAOUI","lastEdited":1493466243489,"lastEditedBy":"RAMEZ.GHAZZAOUI","deprecated":false,"citation":"usan","docType":"SRS","publicDomain":true,"tags":["NOMEN"],"access":[],"_self":"/ginas/app/api/v1/references(31b840f2-7ae3-4ee7-b809-385f34bca9e9)?view\u003dfull"},{"uuid":"937f764d-5a6e-4a77-8cf1-6ab581cdce22","created":1493466243489,"createdBy":"RAMEZ.GHAZZAOUI","lastEdited":1493466243489,"lastEditedBy":"RAMEZ.GHAZZAOUI","deprecated":false,"citation":"USAN","docType":"SRS","publicDomain":true,"tags":["NOMEN"],"access":[],"_self":"/ginas/app/api/v1/references(937f764d-5a6e-4a77-8cf1-6ab581cdce22)?view\u003dfull"},{"uuid":"7b873969-4216-4155-8484-c95d64ad2960","created":1493466243488,"createdBy":"RAMEZ.GHAZZAOUI","lastEdited":1493466243488,"lastEditedBy":"RAMEZ.GHAZZAOUI","deprecated":false,"citation":"USAN COUN 2015","docType":"SRS","publicDomain":true,"tags":["NOMEN"],"access":[],"_self":"/ginas/app/api/v1/references(7b873969-4216-4155-8484-c95d64ad2960)?view\u003dfull"},{"uuid":"d20bd65a-bcf9-42c1-8a1e-0a6ef12385bf","created":1493466243488,"createdBy":"RAMEZ.GHAZZAOUI","lastEdited":1493466243488,"lastEditedBy":"RAMEZ.GHAZZAOUI","deprecated":false,"citation":"WHO-DD","docType":"SRS","publicDomain":true,"tags":["NOMEN"],"access":[],"_self":"/ginas/app/api/v1/references(d20bd65a-bcf9-42c1-8a1e-0a6ef12385bf)?view\u003dfull"},{"uuid":"a492ce6f-052c-4b32-9708-3b076dc8cd57","created":1493466243487,"createdBy":"RAMEZ.GHAZZAOUI","lastEdited":1493466243487,"lastEditedBy":"RAMEZ.GHAZZAOUI","deprecated":false,"citation":"INN","docType":"INN","publicDomain":false,"tags":["NOMEN"],"access":["protected"],"_self":"/ginas/app/api/v1/references(a492ce6f-052c-4b32-9708-3b076dc8cd57)?view\u003dfull"},{"uuid":"72172dac-3245-46ba-a50d-d0bf8c3aec06","created":1493466243487,"createdBy":"RAMEZ.GHAZZAOUI","lastEdited":1493466243487,"lastEditedBy":"RAMEZ.GHAZZAOUI","deprecated":false,"citation":"1121035AA","docType":"BDNUM","publicDomain":false,"tags":["NOMEN"],"access":["protected"],"_self":"/ginas/app/api/v1/references(72172dac-3245-46ba-a50d-d0bf8c3aec06)?view\u003dfull"},{"uuid":"311295a8-432e-4625-8d13-4befc91c8777","created":1493466243485,"createdBy":"RAMEZ.GHAZZAOUI","lastEdited":1493466243485,"lastEditedBy":"RAMEZ.GHAZZAOUI","deprecated":false,"citation":"INN","docType":"SRS","publicDomain":true,"tags":["NOMEN","PUBLIC_DOMAIN_RELEASE","AUTO_SELECTED"],"access":[],"_self":"/ginas/app/api/v1/references(311295a8-432e-4625-8d13-4befc91c8777)?view\u003dfull"}],"approvalID":"M9BYU8XDQ6","tags":["INN","USAN","WHO-DD"],"protein":{"uuid":"f4bd9ebf-13dd-40e9-b52b-ce748c1777be","created":1493466243460,"createdBy":"RAMEZ.GHAZZAOUI","lastEdited":1493466243460,"lastEditedBy":"RAMEZ.GHAZZAOUI","deprecated":false,"sequenceType":"COMPLETE","glycosylation":{"uuid":"235fac41-a4dd-4130-9e68-de5edb3de915","created":1493466243456,"createdBy":"RAMEZ.GHAZZAOUI","lastEdited":1493466243456,"lastEditedBy":"RAMEZ.GHAZZAOUI","deprecated":false,"glycosylationType":"MAMMALIAN","NGlycosylationSites":[{"subunitIndex":1,"residueIndex":301},{"subunitIndex":2,"residueIndex":301}],"OGlycosylationSites":[],"CGlycosylationSites":[],"references":[],"access":[]},"subunits":[{"uuid":"dcbc54c4-1b13-4891-8ddb-19119149f747","created":1493466243461,"createdBy":"RAMEZ.GHAZZAOUI","lastEdited":1493466243461,"lastEditedBy":"RAMEZ.GHAZZAOUI","deprecated":false,"sequence":"QVQLQQSGSELKKPGASVKVSCKASGYTFTNYGMNWVKQAPGQGLKWMGWINTYTGEPTYTDDFKGRFAFSLDTSVSTAYLQISSLKADDTAVYFCARGGFGSSYWYFDVWGQGSLVTVSSASTKGPSVFPLAPSSKSTSGGTAALGCLVKDYFPEPVTVSWNSGALTSGVHTFPAVLQSSGLYSLSSVVTVPSSSLGTQTYICNVNHKPSNTKVDKRVEPKSCDKTHTCPPCPAPELLGGPSVFLFPPKPKDTLMISRTPEVTCVVVDVSHEDPEVKFNWYVDGVEVHNAKTKPREEQYNSTYRVVSVLTVLHQDWLNGKEYKCKVSNKALPAPIEKTISKAKGQPREPQVYTLPPSREEMTKNQVSLTCLVKGFYPSDIAVEWESNGQPENNYKTTPPVLDSDGSFFLYSKLTVDKSRWQQGNVFSCSVMHEALHNHYTQKSLSLSPGK","subunitIndex":1,"length":451.0,"references":[],"access":[]},{"uuid":"6ddef620-cfe5-4f48-957c-f325355d6519","created":1493466243461,"createdBy":"RAMEZ.GHAZZAOUI","lastEdited":1493466243461,"lastEditedBy":"RAMEZ.GHAZZAOUI","deprecated":false,"sequence":"QVQLQQSGSELKKPGASVKVSCKASGYTFTNYGMNWVKQAPGQGLKWMGWINTYTGEPTYTDDFKGRFAFSLDTSVSTAYLQISSLKADDTAVYFCARGGFGSSYWYFDVWGQGSLVTVSSASTKGPSVFPLAPSSKSTSGGTAALGCLVKDYFPEPVTVSWNSGALTSGVHTFPAVLQSSGLYSLSSVVTVPSSSLGTQTYICNVNHKPSNTKVDKRVEPKSCDKTHTCPPCPAPELLGGPSVFLFPPKPKDTLMISRTPEVTCVVVDVSHEDPEVKFNWYVDGVEVHNAKTKPREEQYNSTYRVVSVLTVLHQDWLNGKEYKCKVSNKALPAPIEKTISKAKGQPREPQVYTLPPSREEMTKNQVSLTCLVKGFYPSDIAVEWESNGQPENNYKTTPPVLDSDGSFFLYSKLTVDKSRWQQGNVFSCSVMHEALHNHYTQKSLSLSPGK","subunitIndex":2,"length":451.0,"references":[],"access":[]},{"uuid":"e62a5e51-7cd4-428d-a698-9cb098e13c9b","created":1493466243462,"createdBy":"RAMEZ.GHAZZAOUI","lastEdited":1493466243462,"lastEditedBy":"RAMEZ.GHAZZAOUI","deprecated":false,"sequence":"DIQLTQSPSSLSASVGDRVSITCKASQDVSIAVAWYQQKPGKAPKLLIYSASYRYTGVPDRFSGSGSGTDFTLTISSLQPEDFAVYYCQQHYITPLTFGAGTKVEIKRTVAAPSVFIFPPSDEQLKSGTASVVCLLNNFYPREAKVQWKVDNALQSGNSQESVTEQDSKDSTYSLSSTLTLSKADYEKHKVYACEVTHQGLSSPVTKSFNRGEC","subunitIndex":3,"length":214.0,"references":[],"access":[]},{"uuid":"b343c56e-7fe3-4968-bdc0-c14f509eb1fc","created":1493466243463,"createdBy":"RAMEZ.GHAZZAOUI","lastEdited":1493466243463,"lastEditedBy":"RAMEZ.GHAZZAOUI","deprecated":false,"sequence":"DIQLTQSPSSLSASVGDRVSITCKASQDVSIAVAWYQQKPGKAPKLLIYSASYRYTGVPDRFSGSGSGTDFTLTISSLQPEDFAVYYCQQHYITPLTFGAGTKVEIKRTVAAPSVFIFPPSDEQLKSGTASVVCLLNNFYPREAKVQWKVDNALQSGNSQESVTEQDSKDSTYSLSSTLTLSKADYEKHKVYACEVTHQGLSSPVTKSFNRGEC","subunitIndex":4,"length":214.0,"references":[],"access":[]}],"otherLinks":[],"disulfideLinks":[{"sites":[{"subunitIndex":1,"residueIndex":22},{"subunitIndex":1,"residueIndex":96}],"sitesShorthand":"1_22;1_96"},{"sites":[{"subunitIndex":1,"residueIndex":148},{"subunitIndex":1,"residueIndex":204}],"sitesShorthand":"1_148;1_204"},{"sites":[{"subunitIndex":1,"residueIndex":224},{"subunitIndex":3,"residueIndex":214}],"sitesShorthand":"1_224;3_214"},{"sites":[{"subunitIndex":1,"residueIndex":230},{"subunitIndex":2,"residueIndex":230}],"sitesShorthand":"1_230;2_230"},{"sites":[{"subunitIndex":1,"residueIndex":233},{"subunitIndex":2,"residueIndex":233}],"sitesShorthand":"1_233;2_233"},{"sites":[{"subunitIndex":1,"residueIndex":265},{"subunitIndex":1,"residueIndex":325}],"sitesShorthand":"1_265;1_325"},{"sites":[{"subunitIndex":1,"residueIndex":371},{"subunitIndex":1,"residueIndex":429}],"sitesShorthand":"1_371;1_429"},{"sites":[{"subunitIndex":2,"residueIndex":22},{"subunitIndex":2,"residueIndex":96}],"sitesShorthand":"2_22;2_96"},{"sites":[{"subunitIndex":2,"residueIndex":148},{"subunitIndex":2,"residueIndex":204}],"sitesShorthand":"2_148;2_204"},{"sites":[{"subunitIndex":2,"residueIndex":224},{"subunitIndex":4,"residueIndex":214}],"sitesShorthand":"2_224;4_214"},{"sites":[{"subunitIndex":2,"residueIndex":265},{"subunitIndex":2,"residueIndex":325}],"sitesShorthand":"2_265;2_325"},{"sites":[{"subunitIndex":2,"residueIndex":371},{"subunitIndex":2,"residueIndex":429}],"sitesShorthand":"2_371;2_429"},{"sites":[{"subunitIndex":3,"residueIndex":23},{"subunitIndex":3,"residueIndex":88}],"sitesShorthand":"3_23;3_88"},{"sites":[{"subunitIndex":3,"residueIndex":134},{"subunitIndex":3,"residueIndex":194}],"sitesShorthand":"3_134;3_194"},{"sites":[{"subunitIndex":4,"residueIndex":23},{"subunitIndex":4,"residueIndex":88}],"sitesShorthand":"4_23;4_88"},{"sites":[{"subunitIndex":4,"residueIndex":134},{"subunitIndex":4,"residueIndex":194}],"sitesShorthand":"4_134;4_194"}],"references":["e6229a04-1440-46a4-87f8-4749d8e0617c","937f764d-5a6e-4a77-8cf1-6ab581cdce22"],"access":[]},"_name":"SACITUZUMAB GOVITECAN","_approvalIDDisplay":"M9BYU8XDQ6","access":[],"_self":"/ginas/app/api/v1/substances(162f66e1-1270-4c6b-989a-3e78d41447dc)?view\u003dfull"}

>  <DESC_PART1>
<PROTEIN>
 <SEQUENCE_TYPE>COMPLETE</SEQUENCE_TYPE>
 <NUMBER_OF_SUBUNITS>4</NUMBER_OF_SUBUNITS>
<SUBUNIT_GROUP>
 <SUBUNIT>1</SUBUNIT>
 <LENGTH>451</LENGTH>
 <SEQUENCE>QVQLQQSGSELKKPGASVKVSCKASGYTFTNYGMNWVKQAPGQGLKWMGWINTYTGEPTYTDDFKGRFAFSLDTSVSTAYLQISSLKADDTAVYFCARGGFGSSYWYFDVWGQGSLVTVSSASTKGPSVFPLAPSSKSTSGGTAALGCLVKDYFPEPVTVSWNSGALTSGVHTFPAVLQSSGLYSLSSVVTVPSSSLGTQTYICNVNHKPSNTKVDKRVEPKSCDKTHTCPPCPAPELLGGPSVFLFPPKPKDTLMISRTPEVTCVVVDVSHEDPEVKFNWYVDGVEVHNAKTKPREEQYNSTYRVVSVLTVLHQDWLNGKEYKCKVSNKALPAPIEKTISKAKGQPREPQVYTLPPSREEMTKNQVSLTCLVKGFYPSDIAVEWESNGQPENNYKTTPPVLDSDGSFFLYSKLTVDKSRWQQGNVFSCSVMHEALHNHYTQKSLSLSPGK</SEQUENCE>
 </SUBUNIT_GROUP>
<SUBUNIT_GROUP>
 <SUBUNIT>2</SUBUNIT>
 <LENGTH>451</LENGTH>
 <SEQUENCE>QVQLQQSGSELKKPGASVKVSCKASGYTFTNYGMNWVKQAPGQGLKWMGWINTYTGEPTYTDDFKGRFAFSLDTSVSTAYLQISSLKADDTAVYFCARGGFGSSYWYFDVWGQGSLVTVSSASTKGPSVFPLAPSSKSTSGGTAALGCLVKDYFPEPVTVSWNSGALTSGVHTFPAVLQSSGLYSLSSVVTVPSSSLGTQTYICNVNHKPSNTKVDKRVEPKSCDKTHTCPPCPAPELLGGPSVFLFPPKPKDTLMISRTPEVTCVVVDVSHEDPEVKFNWYVDGVEVHNAKTKPREEQYNSTYRVVSVLTVLHQDWLNGKEYKCKVSNKALPAPIEKTISKAKGQPREPQVYTLPPSREEMTKNQVSLTCLVKGFYPSDIAVEWESNGQPENNYKTTPPVLDSDGSFFLYSKLTVDKSRWQQGNVFSCSVMHEALHNHYTQKSLSLSPGK</SEQUENCE>
 </SUBUNIT_GROUP>
<SUBUNIT_GROUP>
 <SUBUNIT>3</SUBUNIT>
 <LENGTH>214</LENGTH>
 <SEQUENCE>DIQLTQSPSSLSASVGDRVSITCKASQDVSIAVAWYQQKPGKAPKLLIYSASYRYTGVPDRFSGSGSGTDFTLTISSLQPEDFAVYYCQQHYITPLTFGAGTKVEIKRTVAAPSVFIFPPSDEQLKSGTASVVCLLNNFYPREAKVQWKVDNALQSGNSQESVTEQDSKDSTYSLSSTLTLSKADYEKHKVYACEVTHQGLSSPVTKSFNRGEC</SEQUENCE>
 </SUBUNIT_GROUP>
<SUBUNIT_GROUP>
 <SUBUNIT>4</SUBUNIT>
 <LENGTH>214</LENGTH>
 <SEQUENCE>DIQLTQSPSSLSASVGDRVSITCKASQDVSIAVAWYQQKPGKAPKLLIYSASYRYTGVPDRFSGSGSGTDFTLTISSLQPEDFAVYYCQQHYITPLTFGAGTKVEIKRTVAAPSVFIFPPSDEQLKSGTASVVCLLNNFYPREAKVQWKVDNALQSGNSQESVTEQDSKDSTYSLSSTLTLSKADYEKHKVYACEVTHQGLSSPVTKSFNRGEC</SEQUENCE>
 </SUBUNIT_GROUP>
 <DISULFIDE_LINKAGE>1_22-1_96; 1_148-1_204; 1_224-3_214; 1_230-2_230; 1_233-2_233; 1_265-1_325; 1_371-1_429; 2_22-2_96; 2_148-2_204; 2_224-4_214; 2_265-2_325; 2_371-2_429; 3_23-3_88; 3_134-3_194; 4_23-4_88; 4_134-4_194</DISULFIDE_LINKAGE>
<GLYCOSYLATION>
 <GLYCOSYLATION_TYPE>MAMMALIAN</GLYCOSYLATION_TYPE>
 <N_GLYCOSYLATION>1_301; 2_301</N_GLYCOSYLATION>
 <O_GLYCOSYLATION/>
 <C_GLYCOSYLATION/>
 </GLYCOSYLATION>
<MODIFICATION_GROUP>
<PHYSICAL_MODIFICATION_GROUP>
 <ROLE/>
 <NUMBER_OF_PARAMETERS>0</NUMBER_OF_PARAMETERS>
<PARAMETER_GROUP>
 <PARAMETER/>
<AMOUNT>
 <AVERAGE/>
 <LOW_LIMIT/>
 <HIGH_LIMIT/>
 <UNIT/>
 <NON_NUMERIC_VALUE/>
 </AMOUNT>
 </PARAMETER_GROUP>
 </PHYSICAL_MODIFICATION_GROUP>
<AGENT_MODIFICATION_GROUP>
 <AGENT_MODIFICATION_TYPE/>
 <ROLE/>
 <MODIFICATION_AGENT/>
 <MODIFICATION_AGENT_ID/>
 <MODIFICATION_PROCESS/>
 <AMOUNT_TYPE/>
<AMOUNT>
 <AVERAGE/>
 <LOW_LIMIT/>
 <HIGH_LIMIT/>
 <UNIT/>
 <NON_NUMERIC_VALUE/>
 </AMOUNT>
 </AGENT_MODIFICATION_GROUP>
<STRUCTURAL_MODIFICATION_GROUP>
 <RESIDUE_MODIFIED/>
 <RESIDUE_SITE>1_22; 1_96; 1_148; 1_204; 1_224; 3_214; 1_230; 2_230; 1_233; 2_233; 1_265; 1_325; 1_371; 1_429; 2_22; 2_96; 2_148; 2_204; 2_224; 4_214; 2_265; 2_325; 2_371; 2_429; 3_23; 3_88; 3_134; 3_194; 4_23; 4_88; 4_134; 4_194</RESIDUE_SITE>
 <NUMBER_OF_FRAGMENTS_MOIETIES/>
 <AMOUNT_TYPE>probability</AMOUNT_TYPE>
<MOLECULAR_FRAGMENT_MOIETY>
 <STRUCTURAL_MODIFICATION_TYPE/>
 <ROLE>AMINO ACID SUBSTITUTION</ROLE>
 <FRAGMENT_NUMBER/>
 <MOLECULAR_FRAGMENT_NAME/>
 <MOLECULAR_FRAGMENT_ID/>
 <MOLECULAR_FRAGMENT_INCHI/>
 <FRAGMENT_CONNECTIVTY>105; 110</FRAGMENT_CONNECTIVTY>
 <MOLFILE external="1"/>
<AMOUNT>
 <AVERAGE>6/32</AVERAGE>
 <LOW_LIMIT/>
 <HIGH_LIMIT/>
 <UNIT/>
 <NON_NUMERIC_VALUE/>
 </AMOUNT>
 </MOLECULAR_FRAGMENT_MOIETY>
 </STRUCTURAL_MODIFICATION_GROUP>
 </MODIFICATION_GROUP>
 <COMMENTS/>
 <PUBLIC_DOMAIN/>
 </PROTEIN>

>  <STRUCTURE_ID>
d32800b9-8cd1-31b4-81c7-5f6568c19b60

>  <UNII>
M9BYU8XDQ6

>  <SUBSTANCE_ID>
162f66e1-1270-4c6b-989a-3e78d41447dc

>  <COMMENTS>


>  <REF_INFO_PART1>


$$$$
