
  Symyx   10091415242D 1   1.00000     0.00000     0

 60 61  0     1  0            999 V2000
   16.7380   -9.0227    0.0000 O   0  0  0  0  0  0           0  0  0
    8.7763   -9.0374    0.0000 N   0  0  0  0  0  0           0  0  0
    9.4174   -8.5688    0.0000 C   0  0  2  0  0  0           0  0  0
   10.0924   -9.8412    0.0000 O   0  0  0  0  0  0           0  0  0
   10.0924   -9.0251    0.0000 C   0  0  0  0  0  0           0  0  0
    9.4174   -7.7505    0.0000 C   0  0  0  0  0  0           0  0  0
   10.9083   -7.5260    0.0000 C   0  0  0  0  0  0           0  0  0
   10.1209   -7.3415    0.0000 C   0  0  0  0  0  0           0  0  0
   11.3282   -6.8276    0.0000 N   0  0  0  0  0  0           0  0  0
   10.0472   -6.5329    0.0000 C   0  0  0  0  0  0           0  0  0
   10.7944   -6.2147    0.0000 C   0  0  0  0  0  0           0  0  0
   10.8909   -5.4088    0.0000 C   0  0  0  0  0  0           0  0  0
   10.2373   -4.9227    0.0000 C   0  0  0  0  0  0           0  0  0
    9.4901   -5.2409    0.0000 C   0  0  0  0  0  0           0  0  0
    9.4003   -6.0429    0.0000 C   0  0  0  0  0  0           0  0  0
    9.3672   -9.0370    0.0000 N   0  0  0  0  0  0           0  0  0
   10.2169   -8.4081    0.0000 C   0  0  2  0  0  0           0  0  0
   11.1220   -9.0198    0.0000 C   0  0  0  0  0  0           0  0  0
   11.1220  -10.1103    0.0000 O   0  0  0  0  0  0           0  0  0
   10.2169   -7.3180    0.0000 C   0  0  0  0  0  0           0  0  0
   10.1230   -9.0371    0.0000 N   0  0  0  0  0  0           0  0  0
   11.0308   -8.3735    0.0000 C   0  0  0  0  0  0           0  0  0
   11.9910  -10.1754    0.0000 O   0  0  0  0  0  0           0  0  0
   11.9867   -9.0198    0.0000 C   0  0  0  0  0  0           0  0  0
   10.8887   -9.0375    0.0000 N   0  0  0  0  0  0           0  0  0
   11.8398   -8.3422    0.0000 C   0  0  0  0  0  0           0  0  0
   12.8460  -10.2302    0.0000 O   0  0  0  0  0  0           0  0  0
   12.8415   -9.0193    0.0000 C   0  0  0  0  0  0           0  0  0
   11.9323   -9.0354    0.0000 N   0  0  0  0  0  0           0  0  0
   12.6560   -8.5062    0.0000 C   0  0  2  0  0  0           0  0  0
   13.4183   -9.9429    0.0000 O   0  0  0  0  0  0           0  0  0
   13.4183   -9.0215    0.0000 C   0  0  0  0  0  0           0  0  0
   12.6560   -7.5824    0.0000 C   0  0  0  0  0  0           0  0  0
   13.4494   -7.1172    0.0000 C   0  0  0  0  0  0           0  0  0
   14.2434   -7.5766    0.0000 O   0  0  0  0  0  0           0  0  0
   13.4494   -6.1987    0.0000 O   0  0  0  0  0  0           0  0  0
   12.4756   -9.0383    0.0000 N   0  0  0  0  0  0           0  0  0
   13.4537   -8.3143    0.0000 C   0  0  2  0  0  0           0  0  0
   14.4955   -9.0185    0.0000 C   0  0  0  0  0  0           0  0  0
   14.4955  -10.2737    0.0000 O   0  0  0  0  0  0           0  0  0
   13.4537   -7.0596    0.0000 C   0  0  0  0  0  0           0  0  0
   13.3968   -9.0369    0.0000 N   0  0  0  0  0  0           0  0  0
   14.2725   -8.3965    0.0000 C   0  0  2  0  0  0           0  0  0
   15.1948  -10.1350    0.0000 O   0  0  0  0  0  0           0  0  0
   15.1948   -9.0200    0.0000 C   0  0  0  0  0  0           0  0  0
   14.2725   -7.2788    0.0000 C   0  0  0  0  0  0           0  0  0
   15.2348   -6.7239    0.0000 O   0  0  0  0  0  0           0  0  0
   14.0165   -9.0386    0.0000 N   0  0  0  0  0  0           0  0  0
   15.0779   -8.2627    0.0000 C   0  0  0  0  0  0           0  0  0
   16.2005  -10.3694    0.0000 O   0  0  0  0  0  0           0  0  0
   16.1955   -9.0183    0.0000 C   0  0  0  0  0  0           0  0  0
   15.1872   -9.0353    0.0000 N   0  0  0  0  0  0           0  0  0
   15.8974   -8.5160    0.0000 C   0  0  2  0  0  0           0  0  0
   16.6453   -9.9260    0.0000 O   0  0  0  0  0  0           0  0  0
   16.6453   -9.0216    0.0000 C   0  0  0  0  0  0           0  0  0
   15.8974   -7.6092    0.0000 C   0  0  0  0  0  0           0  0  0
   16.6782   -7.1594    0.0000 C   0  0  0  0  0  0           0  0  0
   16.6782   -6.2586    0.0000 C   0  0  0  0  0  0           0  0  0
   17.4586   -5.8087    0.0000 O   0  0  0  0  0  0           0  0  0
   15.8984   -5.8079    0.0000 O   0  0  0  0  0  0           0  0  0
  5 16  1  0     0  0
 21 18  1  0     0  0
 25 24  1  0     0  0
 29 28  1  0     0  0
 32 37  1  0     0  0
 42 39  1  0     0  0
 45 48  1  0     0  0
 55  1  1  0     0  0
 52 51  1  0     0  0
  7  8  2  0     0  0
  6  8  1  0     0  0
 15 10  1  0     0  0
 14 15  2  0     0  0
 13 14  1  0     0  0
 12 13  2  0     0  0
  3  6  1  1     0  0
 11 12  1  0     0  0
  5  4  2  0     0  0
 10 11  2  0     0  0
  3  5  1  0     0  0
  2  3  1  0     0  0
 11  9  1  0     0  0
  8 10  1  0     0  0
  9  7  1  0     0  0
 17 20  1  1     0  0
 18 19  2  0     0  0
 17 18  1  0     0  0
 16 17  1  0     0  0
 24 23  2  0     0  0
 22 24  1  0     0  0
 21 22  1  0     0  0
 28 27  2  0     0  0
 26 28  1  0     0  0
 25 26  1  0     0  0
 32 31  2  0     0  0
 30 32  1  0     0  0
 29 30  1  0     0  0
 34 36  1  0     0  0
 34 35  2  0     0  0
 30 33  1  1     0  0
 33 34  1  0     0  0
 38 41  1  1     0  0
 39 40  2  0     0  0
 38 39  1  0     0  0
 37 38  1  0     0  0
 42 43  1  0     0  0
 43 45  1  0     0  0
 46 47  1  0     0  0
 43 46  1  1     0  0
 45 44  2  0     0  0
 51 50  2  0     0  0
 49 51  1  0     0  0
 48 49  1  0     0  0
 53 56  1  1     0  0
 55 54  2  0     0  0
 53 55  1  0     0  0
 58 60  1  0     0  0
 52 53  1  0     0  0
 58 59  2  0     0  0
 57 58  1  0     0  0
 56 57  1  0     0  0
M  STY  8   1 SUP   2 SUP   3 SUP   4 SUP   5 SUP   6 SUP   7 SUP   8 SUP
M  STY  2   9 SUP  10 SUP
M  SLB  8   1   1   2   2   3   3   4   4   5   5   6   6   7   7   8   8
M  SLB  2   9   9  10  10
M  SAL   1  1   1
M  SBL   1  1   8
M  SMT   1 OH
M  SBV   1   8   -0.8200   -0.0100
M  SCL   1 LGRP
M  SAL   2 14   2   3   4   5   6   7   8   9  10  11  12  13  14  15
M  SBL   2  1   1
M  SMT   2 W
M  SDI   2  4   -5.1100   -0.4500   -5.1100    5.3700
M  SBV   2   1    0.8100    0.0000
M  SCL   2 AA
M  SAP   2  3   9   0 Cx   2   0 Al   5  16 Br
M  SAL   3  5  16  17  18  19  20
M  SBL   3  2   1   2
M  SMT   3 A
M  SDI   3  4    3.1200   -3.7200    3.1200    0.1400
M  SBV   3   2    0.8100    0.0000
M  SBV   3   1   -0.8100    0.0000
M  SCL   3 AA
M  SAP   3  2  16   5 Al  18  21 Br
M  SAL   4  4  21  22  23  24
M  SBL   4  2   2   3
M  SMT   4 G
M  SBV   4   3    0.8100    0.0000
M  SBV   4   2   -0.8100    0.0000
M  SCL   4 AA
M  SAP   4  2  24  25 Br  21  18 Al
M  SAL   5  4  25  26  27  28
M  SBL   5  2   3   4
M  SMT   5 G
M  SBV   5   4    0.8100    0.0000
M  SBV   5   3   -0.8100    0.0000
M  SCL   5 AA
M  SAP   5  2  28  29 Br  25  24 Al
M  SAL   6  8  29  30  31  32  33  34  35  36
M  SBL   6  2   4   5
M  SMT   6 D
M  SDI   6  4   -5.4300   -2.5700   -5.4300    2.9300
M  SBV   6   5    0.8100    0.0000
M  SBV   6   4   -0.8100    0.0000
M  SCL   6 AA
M  SAP   6  3  36   0 Cx  29  28 Al  32  37 Br
M  SAL   7  5  37  38  39  40  41
M  SBL   7  2   5   6
M  SMT   7 A
M  SDI   7  4    2.5900   -3.9700    2.5900    0.4800
M  SBV   7   6    0.8100    0.0000
M  SBV   7   5   -0.8100    0.0000
M  SCL   7 AA
M  SAP   7  2  37  32 Al  39  42 Br
M  SAL   8  6  42  43  44  45  46  47
M  SBL   8  2   6   7
M  SMT   8 S
M  SDI   8  4  -14.8100   -3.8900  -14.8100    1.6300
M  SBV   8   7    0.8100    0.0000
M  SBV   8   6   -0.8100    0.0000
M  SCL   8 AA
M  SAP   8  3  47   0 Cx  42  39 Al  45  48 Br
M  SAL   9  4  48  49  50  51
M  SBL   9  2   7   9
M  SMT   9 G
M  SBV   9   9    0.8100    0.0000
M  SBV   9   7   -0.8100    0.0000
M  SCL   9 AA
M  SAP   9  2  51  52 Br  48  45 Al
M  SAL  10  9  52  53  54  55  56  57  58  59  60
M  SBL  10  2   8   9
M  SMT  10 E
M  SDI  10  4  -25.9900  -22.0100  -25.9900  -16.1800
M  SBV  10   9   -0.8100    0.0000
M  SBV  10   8    0.8200    0.0100
M  SCL  10 AA
M  SAP  10  3  60   0 Cx  52  51 Al  55   1 Br
M  END
> <SUBSTANCE_ID>
22634

> <UNII>
YN28Z5YZ73

> <DESC_PART1>
<PROTEIN>
 <SEQUENCE_TYPE>COMPLETE</SEQUENCE_TYPE>
 <NUMBER_OF_SUBUNITS>1</NUMBER_OF_SUBUNITS>
<SUBUNIT_GROUP>
 <SUBUNIT>1</SUBUNIT>
 <LENGTH>9</LENGTH>
 <SEQUENCE>WAGGDASGE</SEQUENCE>
 </SUBUNIT_GROUP>
 <DISULFIDE_LINKAGE/>
<GLYCOSYLATION>
 <GLYCOSYLATION_TYPE/>
 <N_GLYCOSYLATION/>
 <O_GLYCOSYLATION/>
 <C_GLYCOSYLATION/>
 </GLYCOSYLATION>
<MODIFICATION_GROUP>
<PHYSICAL_MODIFICATION_GROUP>
 <ROLE/>
 <NUMBER_OF_PARAMETERS>0</NUMBER_OF_PARAMETERS>
<PARAMETER_GROUP>
 <PARAMETER/>
<AMOUNT>
 <AVERAGE/>
 <LOW_LIMIT/>
 <HIGH_LIMIT/>
 <UNIT/>
 <NON_NUMERIC_VALUE/>
 </AMOUNT>
 </PARAMETER_GROUP>
 </PHYSICAL_MODIFICATION_GROUP>
<AGENT_MODIFICATION_GROUP>
 <AGENT_MODIFICATION_TYPE/>
 <ROLE/>
 <MODIFICATION_AGENT/>
 <MODIFICATION_AGENT_ID/>
 <MODIFICATION_PROCESS/>
 <AMOUNT_TYPE/><AMOUNT>
 <AVERAGE/>
 <LOW_LIMIT/>
 <HIGH_LIMIT/>
 <UNIT/>
 <NON_NUMERIC_VALUE/>
 </AMOUNT>
 </AGENT_MODIFICATION_GROUP>
<STRUCTURAL_MODIFICATION_GROUP>
 <RESIDUE_MODIFIED/>
 <RESIDUE_SITE/>
 <NUMBER_OF_FRAGMENTS_MOIETIES>0</NUMBER_OF_FRAGMENTS_MOIETIES>
 <AMOUNT_TYPE/>
<MOLECULAR_FRAGMENT_MOIETY>
 <STRUCTURAL_MODIFICATION_TYPE/>
 <ROLE/>
 <FRAGMENT_NUMBER>1</FRAGMENT_NUMBER>
 <MOLECULAR_FRAGMENT_NAME/>
 <MOLECULAR_FRAGMENT_ID/>
 <FRAGMENT_CONNECTIVTY> 0;</FRAGMENT_CONNECTIVTY>
<AMOUNT>
 <AVERAGE/>
 <LOW_LIMIT/>
 <HIGH_LIMIT/>
 <UNIT/>
 <NON_NUMERIC_VALUE/>
 </AMOUNT>
 </MOLECULAR_FRAGMENT_MOIETY>
 </STRUCTURAL_MODIFICATION_GROUP>
 </MODIFICATION_GROUP>
<PROPERTY_GROUP>
 <PROPERTY_TYPE/>
 <PROPERTY/>
<PROPERTY_DESCRIPTION>
 <SUBSTANCE_NAME/>
 <SUBSTANCE_ID/>
 <SUBSTANCE_ID/>
 <AMOUNT_TYPE/>
<AMOUNT>
 <AVERAGE/>
 <LOW_LIMIT/>
 <HIGH_LIMIT/>
 <UNIT/>
 <NON_NUMERIC_VALUE/>
 </AMOUNT>
 </PROPERTY_DESCRIPTION>
 </PROPERTY_GROUP>
<MOLECULAR_WEIGHT> <MOLECULAR_WEIGHT_TYPE/>
 <MOLECULAR_WEIGHT_METHOD/>
<AMOUNT>
 <AVERAGE/>
 <LOW_LIMIT/>
 <HIGH_LIMIT/>
 <UNIT/>
 <NON_NUMERIC_VALUE/>
 </AMOUNT>
 </MOLECULAR_WEIGHT>
 <COMMENTS/>
 <PUBLIC_DOMAIN/>
 </PROTEIN>

> <CDBREGNO>
41873

> <STRUCTURE_ID>
18941

$$$$
