
  Symyx   04271719502D 1   1.00000     0.00000     0

 23 22  0     0  0            999 V2000
   -2.3542    0.7875    0.0000 O   0  0  0  0  0  0           0  0  0
   -1.3333    0.2042    0.0000 C   0  0  0  0  0  0           0  0  0
   -0.3167    0.7958    0.0000 C   0  0  0  0  0  0           0  0  0
    0.7042    0.2125    0.0000 C   0  0  0  0  0  0           0  0  0
    1.7208    0.8042    0.0000 C   0  0  0  0  0  0           0  0  0
    2.7417    0.2208    0.0000 C   0  0  0  0  0  0           0  0  0
    3.7583    0.8125    0.0000 O   0  0  0  0  0  0           0  0  0
    1.7277   -2.9708    0.0000 C   0  0  0  0  0  0           0  0  0
    1.7266   -4.1523    0.0000 C   0  0  0  0  0  0           0  0  0
    2.7456   -4.7444    0.0000 C   0  0  0  0  0  0           0  0  0
    3.7703   -4.1519    0.0000 C   0  0  0  0  0  0           0  0  0
    3.7675   -2.9672    0.0000 N   0  0  0  0  0  0           0  0  0
    2.7438   -2.3830    0.0000 C   0  0  0  0  0  0           0  0  0
    4.7924   -4.7399    0.0000 C   0  0  0  0  0  0           0  0  0
    2.7443   -5.9235    0.0000 O   0  0  0  0  0  0           0  0  0
    0.7043   -4.7400    0.0000 C   0  0  0  0  0  0           0  0  0
   -0.3158   -4.1485    0.0000 O   0  0  0  0  0  0           0  0  0
    0.7042   -2.3792    0.0000 C   0  0  0  0  0  0           0  0  0
   -0.3125   -2.9667    0.0000 O   0  0  0  0  0  0           0  0  0
   -1.3333   -2.3792    0.0000 P   0  0  3  0  0  0           0  0  0
   -2.3500   -2.9667    0.0000 O   0  0  0  0  0  0           0  0  0
   -1.9208   -1.3583    0.0000 O   0  0  0  0  0  0           0  0  0
   -0.7542   -1.3542    0.0000 O   0  0  0  0  0  0           0  0  0
 11 12  1  0     0  0
  5  6  1  0     0  0
 12 13  2  0     0  0
 13  8  1  0     0  0
  2  3  1  0     0  0
 11 14  1  0     0  0
  6  7  2  0     0  0
 10 15  1  0     0  0
  9 16  1  0     0  0
  3  4  1  0     0  0
 16 17  2  0     0  0
  8  9  2  0     0  0
  8 18  1  0     0  0
  1  2  2  0     0  0
 18 19  1  0     0  0
  9 10  1  0     0  0
 19 20  1  0     0  0
  4  5  1  0     0  0
 20 21  2  0     0  0
 10 11  2  0     0  0
 20 22  1  0     0  0
 20 23  1  0     0  0
M  END
>  <GSRS_JSON>
{"uuid":"270e16a3-3bf5-4a22-8e9b-e02d3ae9cc99","created":1205788694000,"createdBy":"SEMENDINGERD","lastEdited":1423525532000,"lastEditedBy":"DAMMIKA.AMUGODA-KANK","deprecated":false,"definitionType":"PRIMARY","definitionLevel":"COMPLETE","substanceClass":"protein","status":"approved","version":"1","approvedBy":"SWITZERF","approved":1321047306000,"names":[{"uuid":"d2555d21-38fa-49db-a49f-5f5964e8d29f","created":1294176139001,"createdBy":"PERYEAT","lastEdited":1294176139001,"lastEditedBy":"PERYEAT","deprecated":false,"name":"HEMOGLOBIN GLUTAMER-256 (HUMAN) [USAN]","type":"cn","domains":[],"languages":["en"],"nameJurisdiction":[],"nameOrgs":[],"preferred":false,"displayName":false,"references":["36ce519f-0e96-478a-9ea0-f4bb81de279a","9b0a3539-a06f-4efb-b858-601384225c34","10ab4ed0-c86c-4de9-97b1-ffab1a29672a"],"access":[],"_self":"/ginas/app/api/v1/names(d2555d21-38fa-49db-a49f-5f5964e8d29f)?view\u003dfull"},{"uuid":"58b9bd7b-1388-47a7-8041-75fe01994866","created":1205788294001,"createdBy":"SEMENDINGERD","lastEdited":1205788294001,"lastEditedBy":"SEMENDINGERD","deprecated":false,"name":"POLYHEME","type":"bn","domains":[],"languages":["en"],"nameJurisdiction":[],"nameOrgs":[],"preferred":false,"displayName":false,"references":["10ab4ed0-c86c-4de9-97b1-ffab1a29672a","618755da-a33e-4667-88ea-8fcdfb5fc33f"],"access":["protected"],"_self":"/ginas/app/api/v1/names(58b9bd7b-1388-47a7-8041-75fe01994866)?view\u003dfull"},{"uuid":"91fa0caa-4580-4be8-8f78-a0dc0c2b5884","created":1205788229001,"createdBy":"SEMENDINGERD","lastEdited":1211319470001,"lastEditedBy":"SRSCID_PCR701","deprecated":false,"name":"HEMOGLOBIN GLUTAMER-256 (HUMAN)","type":"of","domains":["drug"],"languages":["en"],"nameJurisdiction":[],"nameOrgs":[{"uuid":"b48e4381-83a4-42a7-89e6-f748acd85bfe","created":1493460065841,"createdBy":"RAMEZ.GHAZZAOUI","lastEdited":1493460065841,"lastEditedBy":"RAMEZ.GHAZZAOUI","deprecated":false,"nameOrg":"USAN","references":[],"access":[]}],"preferred":true,"displayName":true,"references":["36ce519f-0e96-478a-9ea0-f4bb81de279a","c72bfccd-e209-4b87-8a30-5e90b144a766","9b0a3539-a06f-4efb-b858-601384225c34","10ab4ed0-c86c-4de9-97b1-ffab1a29672a","618755da-a33e-4667-88ea-8fcdfb5fc33f"],"access":[],"_self":"/ginas/app/api/v1/names(91fa0caa-4580-4be8-8f78-a0dc0c2b5884)?view\u003dfull"}],"codes":[{"uuid":"e6113da5-e36c-4305-94d4-c39f71c220dc","created":1493460065906,"createdBy":"RAMEZ.GHAZZAOUI","lastEdited":1493460065906,"lastEditedBy":"RAMEZ.GHAZZAOUI","deprecated":false,"codeSystem":"BDNUM","code":"0313611AA","type":"PRIMARY","references":["10ab4ed0-c86c-4de9-97b1-ffab1a29672a"],"access":["protected"],"_self":"/ginas/app/api/v1/codes(e6113da5-e36c-4305-94d4-c39f71c220dc)?view\u003dfull"},{"uuid":"ee4300dd-4021-4b46-a45f-ce86a3aeb21e","created":0,"createdBy":"UNKNOWN","lastEdited":0,"lastEditedBy":"UNKNOWN","deprecated":false,"codeSystem":"PUBCHEM","code":"72941846","comments":"SWITZERF","type":"PRIMARY","url":"https://pubchem.ncbi.nlm.nih.gov/compound/72941846","references":["10ab4ed0-c86c-4de9-97b1-ffab1a29672a","43fc14d5-ddbe-446c-b6c0-916529b0638f"],"access":[],"_self":"/ginas/app/api/v1/codes(ee4300dd-4021-4b46-a45f-ce86a3aeb21e)?view\u003dfull"},{"uuid":"5c9c39c4-0b36-44a7-85d4-0a397537cba7","created":1372598990001,"createdBy":"CALLAHANL","lastEdited":1372598990001,"lastEditedBy":"CALLAHANL","deprecated":false,"codeSystem":"MESH","code":"C509893","type":"PRIMARY","url":"http://www.ncbi.nlm.nih.gov/mesh/67509893","references":["10ab4ed0-c86c-4de9-97b1-ffab1a29672a","43fc14d5-ddbe-446c-b6c0-916529b0638f"],"access":[],"_self":"/ginas/app/api/v1/codes(5c9c39c4-0b36-44a7-85d4-0a397537cba7)?view\u003dfull"},{"uuid":"bc42cdd6-fe7f-47a0-a4ab-c1a592c8e1e5","created":1351615014001,"createdBy":"code modify patch","lastEdited":1351615014001,"lastEditedBy":"code modify patch","deprecated":false,"codeSystem":"CAS","code":"679404-95-6","type":"PRIMARY","url":"http://chem.sis.nlm.nih.gov/chemidplus/direct.jsp?regno\u003d679404-95-6\u0026result\u003dadvanced","references":["10ab4ed0-c86c-4de9-97b1-ffab1a29672a","43fc14d5-ddbe-446c-b6c0-916529b0638f"],"access":[],"_self":"/ginas/app/api/v1/codes(bc42cdd6-fe7f-47a0-a4ab-c1a592c8e1e5)?view\u003dfull"}],"modifications":{"uuid":"d96e7aa4-4492-43d7-940a-8c0bd518daab","created":1493460065819,"createdBy":"RAMEZ.GHAZZAOUI","lastEdited":1493460065819,"lastEditedBy":"RAMEZ.GHAZZAOUI","deprecated":false,"agentModifications":[{"uuid":"64682ce2-1adc-47b6-98fd-bd7cd622fff8","created":1493460065820,"createdBy":"RAMEZ.GHAZZAOUI","lastEdited":1493460065820,"lastEditedBy":"RAMEZ.GHAZZAOUI","deprecated":false,"agentSubstance":{"uuid":"7ade478b-2d1d-46db-a9ec-1d2afaf25722","created":1.493460065819E12,"createdBy":"RAMEZ.GHAZZAOUI","lastEdited":1.493460065819E12,"lastEditedBy":"RAMEZ.GHAZZAOUI","deprecated":false,"refPname":"GLUTARAL","refuuid":"3d9711fa-4c64-4be6-aa45-508cdac41373","substanceClass":"reference","approvalID":"T3C89M417N","name":"GLUTARAL","linkingID":"T3C89M417N","references":[],"access":[]},"amount":{"uuid":"0d0bc929-d956-4248-95b3-c2ca3ae420f1","created":1493460065820,"createdBy":"RAMEZ.GHAZZAOUI","lastEdited":1493460065820,"lastEditedBy":"RAMEZ.GHAZZAOUI","deprecated":false,"references":[],"access":[]},"references":[],"access":[]}],"physicalModifications":[],"structuralModifications":[{"uuid":"99c9d6c3-d660-4440-ba05-e8995f157d7a","created":1493460065822,"createdBy":"RAMEZ.GHAZZAOUI","lastEdited":1493460065822,"lastEditedBy":"RAMEZ.GHAZZAOUI","deprecated":false,"structuralModificationType":"METAL BINDING","extent":"COMPLETE","molecularFragment":{"uuid":"d3539dc6-6958-419d-8397-eed7694133c0","created":1.493460065822E12,"createdBy":"RAMEZ.GHAZZAOUI","lastEdited":1.493460065822E12,"lastEditedBy":"RAMEZ.GHAZZAOUI","deprecated":false,"refPname":"HEME L","refuuid":"2571f3eb-ecd4-41ea-b31f-7d94a12b4536","substanceClass":"reference","approvalID":"89KZP8XN3K","name":"HEME L","linkingID":"89KZP8XN3K","references":[],"access":[]},"sites":[{"subunitIndex":1,"residueIndex":63},{"subunitIndex":1,"residueIndex":92}],"references":[],"access":[]},{"uuid":"c55ed3ea-1331-4a0f-a4d1-99e110987854","created":1493460065824,"createdBy":"RAMEZ.GHAZZAOUI","lastEdited":1493460065824,"lastEditedBy":"RAMEZ.GHAZZAOUI","deprecated":false,"structuralModificationType":"METAL BINDING","extent":"COMPLETE","molecularFragment":{"uuid":"9f8d182a-8038-42f8-9e75-d075019266b1","created":1.493460065824E12,"createdBy":"RAMEZ.GHAZZAOUI","lastEdited":1.493460065824E12,"lastEditedBy":"RAMEZ.GHAZZAOUI","deprecated":false,"refPname":"HEME L","refuuid":"2571f3eb-ecd4-41ea-b31f-7d94a12b4536","substanceClass":"reference","approvalID":"89KZP8XN3K","name":"HEME L","linkingID":"89KZP8XN3K","references":[],"access":[]},"sites":[{"subunitIndex":2,"residueIndex":63},{"subunitIndex":2,"residueIndex":92}],"references":[],"access":[]},{"uuid":"1e9b874d-f43d-4b8c-b705-a1fadda86dc5","created":1493460065826,"createdBy":"RAMEZ.GHAZZAOUI","lastEdited":1493460065826,"lastEditedBy":"RAMEZ.GHAZZAOUI","deprecated":false,"structuralModificationType":"METAL BINDING","extent":"COMPLETE","molecularFragment":{"uuid":"c62ac72f-445e-4dce-becf-517a92dddbd2","created":1.493460065825E12,"createdBy":"RAMEZ.GHAZZAOUI","lastEdited":1.493460065825E12,"lastEditedBy":"RAMEZ.GHAZZAOUI","deprecated":false,"refPname":"HEME L","refuuid":"2571f3eb-ecd4-41ea-b31f-7d94a12b4536","substanceClass":"reference","approvalID":"89KZP8XN3K","name":"HEME L","linkingID":"89KZP8XN3K","references":[],"access":[]},"sites":[{"subunitIndex":3,"residueIndex":58},{"subunitIndex":3,"residueIndex":87}],"references":[],"access":[]},{"uuid":"d613939d-409f-4f2f-91e2-f221966443e2","created":1493460065828,"createdBy":"RAMEZ.GHAZZAOUI","lastEdited":1493460065828,"lastEditedBy":"RAMEZ.GHAZZAOUI","deprecated":false,"structuralModificationType":"METAL BINDING","extent":"COMPLETE","molecularFragment":{"uuid":"418e88e3-44dd-4a13-a0a6-cd93ddf94b06","created":1.493460065827E12,"createdBy":"RAMEZ.GHAZZAOUI","lastEdited":1.493460065827E12,"lastEditedBy":"RAMEZ.GHAZZAOUI","deprecated":false,"refPname":"HEME L","refuuid":"2571f3eb-ecd4-41ea-b31f-7d94a12b4536","substanceClass":"reference","approvalID":"89KZP8XN3K","name":"HEME L","linkingID":"89KZP8XN3K","references":[],"access":[]},"sites":[{"subunitIndex":4,"residueIndex":58},{"subunitIndex":4,"residueIndex":87}],"references":[],"access":[]},{"uuid":"128a091a-7b2d-4e7e-a703-7aa92f953aa5","created":1493460065829,"createdBy":"RAMEZ.GHAZZAOUI","lastEdited":1493460065829,"lastEditedBy":"RAMEZ.GHAZZAOUI","deprecated":false,"structuralModificationType":"AMINO ACID SUBSTITUTION","residueModified":"VALINE","extent":"COMPLETE","molecularFragment":{"uuid":"fbc44122-d824-4d64-acc8-c5e456b5dccf","created":1.493460065829E12,"createdBy":"RAMEZ.GHAZZAOUI","lastEdited":1.493460065829E12,"lastEditedBy":"RAMEZ.GHAZZAOUI","deprecated":false,"refPname":"N-((3-HYDROXY-2-METHYL-5-((PHOSPHONOOXY)METHYL)-4-PYRIDINYL)METHYLENE)-L-VALINE","refuuid":"FAKE_ID:8Y0QNU2JVT","substanceClass":"reference","approvalID":"8Y0QNU2JVT","name":"N-((3-HYDROXY-2-METHYL-5-((PHOSPHONOOXY)METHYL)-4-PYRIDINYL)METHYLENE)-L-VALINE","linkingID":"8Y0QNU2JVT","references":[],"access":[]},"sites":[{"subunitIndex":1,"residueIndex":1},{"subunitIndex":2,"residueIndex":1},{"subunitIndex":3,"residueIndex":1},{"subunitIndex":4,"residueIndex":1}],"references":[],"access":[]},{"uuid":"13f2ae57-851f-4515-bb4e-425c2111a388","created":1493460065831,"createdBy":"RAMEZ.GHAZZAOUI","lastEdited":1493460065831,"lastEditedBy":"RAMEZ.GHAZZAOUI","deprecated":false,"structuralModificationType":"AMINO ACID SUBSTITUTION","residueModified":"LYSINE","extent":"COMPLETE","molecularFragment":{"uuid":"070ddeac-b823-4569-92d1-c705d2a5a346","created":1.49346006583E12,"createdBy":"RAMEZ.GHAZZAOUI","lastEdited":1.49346006583E12,"lastEditedBy":"RAMEZ.GHAZZAOUI","deprecated":false,"refPname":"N6-(PYRIDOXAL PHOSPHATE)LYSINE","refuuid":"a914d890-afc2-4b09-8297-b587bbd2a7c5","substanceClass":"reference","approvalID":"QM00M3504A","name":"N6-(PYRIDOXAL PHOSPHATE)LYSINE","linkingID":"QM00M3504A","references":[],"access":[]},"sites":[{"subunitIndex":1,"residueIndex":56},{"subunitIndex":1,"residueIndex":82},{"subunitIndex":1,"residueIndex":127},{"subunitIndex":1,"residueIndex":139},{"subunitIndex":2,"residueIndex":56},{"subunitIndex":2,"residueIndex":82},{"subunitIndex":2,"residueIndex":127},{"subunitIndex":2,"residueIndex":139},{"subunitIndex":3,"residueIndex":66},{"subunitIndex":3,"residueIndex":95},{"subunitIndex":3,"residueIndex":132},{"subunitIndex":3,"residueIndex":144},{"subunitIndex":4,"residueIndex":66},{"subunitIndex":4,"residueIndex":95},{"subunitIndex":4,"residueIndex":132},{"subunitIndex":4,"residueIndex":144}],"references":[],"access":[]}],"references":[],"access":[]},"notes":[{"uuid":"84abc56b-2141-48eb-a511-1afe96a735e2","created":1493460065931,"createdBy":"RAMEZ.GHAZZAOUI","lastEdited":1493460065931,"lastEditedBy":"RAMEZ.GHAZZAOUI","deprecated":false,"note":"[Validation]WARNING:Calculated weight [61978.68] is greater than 5% off of given weight [256000.00]","references":["af33d353-330f-45df-b8ba-61a9f58e0a70"],"access":["admin"]},{"uuid":"c5490440-7915-4942-97ae-3166bacd749c","created":1493460065930,"createdBy":"RAMEZ.GHAZZAOUI","lastEdited":1493460065930,"lastEditedBy":"RAMEZ.GHAZZAOUI","deprecated":false,"note":"Legacy Molfile:\n  Symyx   04271719502D 1   1.00000     0.00000     0\n\n 23 22  0     0  0            999 V2000\n   -2.3542    0.7875    0.0000 O   0  0  0  0  0  0           0  0  0\n   -1.3333    0.2042    0.0000 C   0  0  0  0  0  0           0  0  0\n   -0.3167    0.7958    0.0000 C   0  0  0  0  0  0           0  0  0\n    0.7042    0.2125    0.0000 C   0  0  0  0  0  0           0  0  0\n    1.7208    0.8042    0.0000 C   0  0  0  0  0  0           0  0  0\n    2.7417    0.2208    0.0000 C   0  0  0  0  0  0           0  0  0\n    3.7583    0.8125    0.0000 O   0  0  0  0  0  0           0  0  0\n    1.7277   -2.9708    0.0000 C   0  0  0  0  0  0           0  0  0\n    1.7266   -4.1523    0.0000 C   0  0  0  0  0  0           0  0  0\n    2.7456   -4.7444    0.0000 C   0  0  0  0  0  0           0  0  0\n    3.7703   -4.1519    0.0000 C   0  0  0  0  0  0           0  0  0\n    3.7675   -2.9672    0.0000 N   0  0  0  0  0  0           0  0  0\n    2.7438   -2.3830    0.0000 C   0  0  0  0  0  0           0  0  0\n    4.7924   -4.7399    0.0000 C   0  0  0  0  0  0           0  0  0\n    2.7443   -5.9235    0.0000 O   0  0  0  0  0  0           0  0  0\n    0.7043   -4.7400    0.0000 C   0  0  0  0  0  0           0  0  0\n   -0.3158   -4.1485    0.0000 O   0  0  0  0  0  0           0  0  0\n    0.7042   -2.3792    0.0000 C   0  0  0  0  0  0           0  0  0\n   -0.3125   -2.9667    0.0000 O   0  0  0  0  0  0           0  0  0\n   -1.3333   -2.3792    0.0000 P   0  0  3  0  0  0           0  0  0\n   -2.3500   -2.9667    0.0000 O   0  0  0  0  0  0           0  0  0\n   -1.9208   -1.3583    0.0000 O   0  0  0  0  0  0           0  0  0\n   -0.7542   -1.3542    0.0000 O   0  0  0  0  0  0           0  0  0\n 11 12  1  0     0  0\n  5  6  1  0     0  0\n 12 13  2  0     0  0\n 13  8  1  0     0  0\n  2  3  1  0     0  0\n 11 14  1  0     0  0\n  6  7  2  0     0  0\n 10 15  1  0     0  0\n  9 16  1  0     0  0\n  3  4  1  0     0  0\n 16 17  2  0     0  0\n  8  9  2  0     0  0\n  8 18  1  0     0  0\n  1  2  2  0     0  0\n 18 19  1  0     0  0\n  9 10  1  0     0  0\n 19 20  1  0     0  0\n  4  5  1  0     0  0\n 20 21  2  0     0  0\n 10 11  2  0     0  0\n 20 22  1  0     0  0\n 20 23  1  0     0  0\nM  END\n","references":[],"access":[]},{"uuid":"84df454d-ee26-4b3d-b2a3-70e0fcf67e93","created":1493460065929,"createdBy":"RAMEZ.GHAZZAOUI","lastEdited":1493460065929,"lastEditedBy":"RAMEZ.GHAZZAOUI","deprecated":false,"note":"Modified residue sites are not specified in USAN (residue sites are questionable); Could not add Arg (3_104;4_104) modification (N-((3-HYDROXY-2-METHYL-5-((PHOSPHONOOXY)METHYL)-4-PYRIDINYL)METHYLENE)-L-ARGININE) because of 12000 character limit","references":["13af89f2-e5b6-4efe-83ca-fa0a92b3845a"],"access":["protected"]},{"uuid":"b9a1578d-cc5d-4187-8a50-8c2a2541fbec","created":1493460065928,"createdBy":"RAMEZ.GHAZZAOUI","lastEdited":1493460065928,"lastEditedBy":"RAMEZ.GHAZZAOUI","deprecated":false,"note":"LEGACY XML:\u003cSUBSTANCE\u003e\n \u003cSUBSTANCE_ID/\u003e\n\u003cNAME_GROUP\u003e\n \u003cNAME/\u003e\n \u003cPUBLIC_DOMAIN/\u003e\n \u003cNAME_TYPE/\u003e\n \u003cLANGUAGE_ISOCODE/\u003e\n\u003cOFFICIAL_NAME_GROUP\u003e\n \u003cOFFICIAL_NAME_TYPE/\u003e\n \u003cOFFICIAL_NAME_STATUS/\u003e\n \u003cOFFICIAL_NAME_STATUS_CHANGE_DATE/\u003e\n\u003cOFFICIAL_NAME_JURISDICTION_GROUP\u003e\n \u003cOFFICIAL_NAME_JURISDICTION/\u003e\n \u003c/OFFICIAL_NAME_JURISDICTION_GROUP\u003e\n \u003cOFFICIAL_NAME_DOMAIN/\u003e\n \u003c/OFFICIAL_NAME_GROUP\u003e\n\u003cREFERENCE_SOURCE_GROUP\u003e\n \u003cPUBLIC_DOMAIN/\u003e\n \u003cREFERENCE_SOURCE_TYPE/\u003e\n \u003cREFERENCE_SOURCE_IDENTIFIER/\u003e\n \u003cREFERENCE_SOURCE_CITATION/\u003e\n \u003c/REFERENCE_SOURCE_GROUP\u003e\n \u003c/NAME_GROUP\u003e\n\u003cCODE_GROUP\u003e\n \u003cCODE/\u003e\n \u003cCODE_SYSTEM/\u003e\n \u003cCODE_SYSTEM_ID/\u003e\n \u003cCODE_STATUS/\u003e\n \u003cCODE_STATUS_CHANGE_DATE/\u003e\n\u003cREFERENCE_SOURCE_GROUP\u003e\n \u003cPUBLIC_DOMAIN/\u003e\n \u003cREFERENCE_SOURCE_TYPE/\u003e\n \u003cREFERENCE_SOURCE_IDENTIFIER/\u003e\n \u003cREFERENCE_SOURCE_CITATION/\u003e\n \u003c/REFERENCE_SOURCE_GROUP\u003e\n \u003c/CODE_GROUP\u003e\n\u003cREFERENCE_INFORMATION\u003e\n\u003cSUBSTANCE_RELATIONSHIP_GROUP\u003e\n \u003cRELATIONSHIP/\u003e\n \u003cTYPE_OF_INTERACTION/\u003e\n \u003cSUBSTANCE_ID/\u003e\n \u003cSUBSTANCE_NAME/\u003e\n \u003cRELATIONSHIP/\u003e\n \u003cAMOUNT_TYPE/\u003e\n\u003cAMOUNT\u003e\n \u003cAVERAGE/\u003e\n \u003cLOW_LIMIT/\u003e\n \u003cHIGH_LIMIT/\u003e\n \u003cUNIT/\u003e\n \u003cNON_NUMERIC_VALUE/\u003e\n \u003c/AMOUNT\u003e\n\u003cREFERENCE_SOURCE_GROUP\u003e\n \u003cPUBLIC_DOMAIN/\u003e\n \u003cREFERENCE_SOURCE_TYPE/\u003e\n \u003cREFERENCE_SOURCE_IDENTIFIER/\u003e\n \u003cREFERENCE_SOURCE_CITATION/\u003e\n \u003c/REFERENCE_SOURCE_GROUP\u003e\n \u003c/SUBSTANCE_RELATIONSHIP_GROUP\u003e\n\u003cGENE_GROUP\u003e\n \u003cGENE_SEQUENCE_ORIGIN/\u003e\n \u003cGENE_ID/\u003e\n \u003cGENE_NAME/\u003e\n\u003cREFERENCE_SOURCE_GROUP\u003e\n \u003cPUBLIC_DOMAIN/\u003e\n \u003cREFERENCE_SOURCE_TYPE/\u003e\n \u003cREFERENCE_SOURCE_IDENTIFIER/\u003e\n \u003cREFERENCE_SOURCE_CITATION/\u003e\n \u003c/REFERENCE_SOURCE_GROUP\u003e\n \u003c/GENE_GROUP\u003e\n\u003cSUBSTANCE_CLASSIFICATION\u003e\n \u003cDOMAIN/\u003e\n \u003cSUBSTANCE_TYPE/\u003e\n \u003cSUBSTANCE_SUBTYPE/\u003e\n\u003cREFERENCE_SOURCE_GROUP\u003e\n \u003cPUBLIC_DOMAIN/\u003e\n \u003cREFERENCE_SOURCE_TYPE/\u003e\n \u003cREFERENCE_SOURCE_IDENTIFIER/\u003e\n \u003cREFERENCE_SOURCE_CITATION/\u003e\n \u003c/REFERENCE_SOURCE_GROUP\u003e\n \u003c/SUBSTANCE_CLASSIFICATION\u003e\n\u003cTARGET_GROUP\u003e\n \u003cTARGET_ORGANISM/\u003e\n \u003cTARGET_TYPE/\u003e\n \u003cTARGET_NAME/\u003e\n \u003cTARGET_ID/\u003e\n \u003cTARGET_ID_SOURCE/\u003e\n \u003cINTERACTION_TYPE/\u003e\n\u003cREFERENCE_SOURCE_GROUP\u003e\n \u003cPUBLIC_DOMAIN/\u003e\n \u003cREFERENCE_SOURCE_TYPE/\u003e\n \u003cREFERENCE_SOURCE_IDENTIFIER/\u003e\n \u003cREFERENCE_SOURCE_CITATION/\u003e\n \u003c/REFERENCE_SOURCE_GROUP\u003e\n \u003c/TARGET_GROUP\u003e\n \u003cCOMMENTS/\u003e\n \u003c/REFERENCE_INFORMATION\u003e\n\u003cSINGLE_SUBSTANCE\u003e\n\u003cSTRUCTURE\u003e\n \u003cSTRUCTURAL_REPRESENTATION_TYPE/\u003e\n \u003cSTRUCTURAL_REPRESENTATION/\u003e\n \u003cSTEREOCHEMISTRY/\u003e\n \u003cOPTICAL_ACTIVITY/\u003e\n \u003cPUBLIC_DOMAIN/\u003e\n\u003cISOTOPE_GROUP\u003e\n \u003cNUCLIDE_ID/\u003e\n \u003cNUCLIDE_NAME/\u003e\n \u003cSUBSTITUTION_TYPE/\u003e\n \u003c/ISOTOPE_GROUP\u003e\n \u003c/STRUCTURE\u003e\n\u003cELEMENT_TYPE\u003e\n\u003cPROTEIN\u003e\n \u003cSEQUENCE_TYPE\u003eCOMPLETE\u003c/SEQUENCE_TYPE\u003e\n \u003cNUMBER_OF_SUBUNITS\u003e4\u003c/NUMBER_OF_SUBUNITS\u003e\n\u003cSUBUNIT_GROUP\u003e\n \u003cSUBUNIT\u003e1\u003c/SUBUNIT\u003e\n \u003cLENGTH\u003e146\u003c/LENGTH\u003e\n \u003cSEQUENCE\u003eVHLTPEEKSAVTALWGKVNVDEVGGEALGRLLVVYPWTQRFFESFGDLSTPDAVMGNPKVKAHGKKVLGAFSDGLAHLDNLKGTFATLSELHCDKLHVDPENFRLLGNVLVCVLAHHFGKEFTPPVQAAYQKVVAGVANALAHKYH\u003c/SEQUENCE\u003e\n \u003c/SUBUNIT_GROUP\u003e\n\u003cSUBUNIT_GROUP\u003e\n \u003cSUBUNIT\u003e2\u003c/SUBUNIT\u003e\n \u003cLENGTH\u003e146\u003c/LENGTH\u003e\n \u003cSEQUENCE\u003eVHLTPEEKSAVTALWGKVNVDEVGGEALGRLLVVYPWTQRFFESFGDLSTPDAVMGNPKVKAHGKKVLGAFSDGLAHLDNLKGTFATLSELHCDKLHVDPENFRLLGNVLVCVLAHHFGKEFTPPVQAAYQKVVAGVANALAHKYH\u003c/SEQUENCE\u003e\n \u003c/SUBUNIT_GROUP\u003e\n\u003cSUBUNIT_GROUP\u003e\n \u003cSUBUNIT\u003e3\u003c/SUBUNIT\u003e\n \u003cLENGTH\u003e141\u003c/LENGTH\u003e\n \u003cSEQUENCE\u003eVLSPADKTNVKAAWGKVGAHAGEYGAEALERMFLSFPTTKTYFPHFDLSHGSAQVKGHGKKVADALTNAVAHVDDMPNALSALSDLHAHKLRVDPVNFKLLSHCLLVTLAAHLPAEFTPAVHASLDKFLASVSTVLTSKYR\u003c/SEQUENCE\u003e\n \u003c/SUBUNIT_GROUP\u003e\n\u003cSUBUNIT_GROUP\u003e\n \u003cSUBUNIT\u003e4\u003c/SUBUNIT\u003e\n \u003cLENGTH\u003e141\u003c/LENGTH\u003e\n \u003cSEQUENCE\u003eVLSPADKTNVKAAWGKVGAHAGEYGAEALERMFLSFPTTKTYFPHFDLSHGSAQVKGHGKKVADALTNAVAHVDDMPNALSALSDLHAHKLRVDPVNFKLLSHCLLVTLAAHLPAEFTPAVHASLDKFLASVSTVLTSKYR\u003c/SEQUENCE\u003e\n \u003c/SUBUNIT_GROUP\u003e\n \u003cDISULFIDE_LINKAGE/\u003e\n\u003cOTHER_LINKAGE\u003e\n \u003cSITE/\u003e\n \u003cLINKAGE_TYPE/\u003e\n\u003cMOLECULAR_FRAGMENT_MOIETY\u003e\n \u003cSTRUCTURAL_MODIFICATION_TYPE/\u003e\n \u003cROLE/\u003e\n \u003cFRAGMENT_NUMBER/\u003e\n \u003cMOLECULAR_FRAGMENT_NAME/\u003e\n \u003cMOLECULAR_FRAGMENT_ID/\u003e\n \u003cMOLECULAR_FRAGMENT_INCHI/\u003e\n \u003cFRAGMENT_CONNECTIVTY\u003e 0;\u003c/FRAGMENT_CONNECTIVTY\u003e\n\u003cAMOUNT\u003e\n \u003cAVERAGE/\u003e\n \u003cLOW_LIMIT/\u003e\n \u003cHIGH_LIMIT/\u003e\n \u003cUNIT/\u003e\n \u003cNON_NUMERIC_VALUE/\u003e\n \u003c/AMOUNT\u003e\n \u003c/MOLECULAR_FRAGMENT_MOIETY\u003e\n \u003c/OTHER_LINKAGE\u003e\n\u003cGLYCOSYLATION\u003e\n \u003cGLYCOSYLATION_TYPE/\u003e\n \u003cN_GLYCOSYLATION/\u003e\n \u003cO_GLYCOSYLATION/\u003e\n \u003cC_GLYCOSYLATION/\u003e\n \u003c/GLYCOSYLATION\u003e\n\u003cMODIFICATION_GROUP\u003e\n\u003cPHYSICAL_MODIFICATION_GROUP\u003e\n \u003cROLE/\u003e\n \u003cNUMBER_OF_PARAMETERS\u003e0\u003c/NUMBER_OF_PARAMETERS\u003e\n\u003cPARAMETER_GROUP\u003e\n \u003cPARAMETER/\u003e\n\u003cAMOUNT\u003e\n \u003cAVERAGE/\u003e\n \u003cLOW_LIMIT/\u003e\n \u003cHIGH_LIMIT/\u003e\n \u003cUNIT/\u003e\n \u003cNON_NUMERIC_VALUE/\u003e\n \u003c/AMOUNT\u003e\n \u003c/PARAMETER_GROUP\u003e\n \u003c/PHYSICAL_MODIFICATION_GROUP\u003e\n\u003cAGENT_MODIFICATION_GROUP\u003e\n \u003cAGENT_MODIFICATION_TYPE/\u003e\n \u003cROLE/\u003e\n \u003cMODIFICATION_AGENT\u003eGLUTARAL \u003c/MODIFICATION_AGENT\u003e\n \u003cMODIFICATION_AGENT_ID\u003eT3C89M417N\u003c/MODIFICATION_AGENT_ID\u003e\n \u003cMOLECULAR_FRAGMENT_INCHI\u003eInChI\u003d1S/C5H8O2/c6-4-2-1-3-5-7/h4-5H,1-3H2\u003c/MOLECULAR_FRAGMENT_INCHI\u003e\n \u003cMODIFICATION_PROCESS/\u003e\n \u003cAMOUNT_TYPE/\u003e\n\u003cAMOUNT\u003e\n \u003cAVERAGE/\u003e\n \u003cLOW_LIMIT/\u003e\n \u003cHIGH_LIMIT/\u003e\n \u003cUNIT/\u003e\n \u003cNON_NUMERIC_VALUE/\u003e\n \u003c/AMOUNT\u003e\n \u003c/AGENT_MODIFICATION_GROUP\u003e\n\u003cSTRUCTURAL_MODIFICATION_GROUP\u003e\n \u003cRESIDUE_MODIFIED/\u003e\n \u003cRESIDUE_SITE\u003e1_63;1_92;\u003c/RESIDUE_SITE\u003e\n \u003cNUMBER_OF_FRAGMENTS_MOIETIES\u003e1\u003c/NUMBER_OF_FRAGMENTS_MOIETIES\u003e\n \u003cAMOUNT_TYPE/\u003e\n\u003cMOLECULAR_FRAGMENT_MOIETY\u003e\n \u003cSTRUCTURAL_MODIFICATION_TYPE\u003eMETAL BINDING\u003c/STRUCTURAL_MODIFICATION_TYPE\u003e\n \u003cROLE\u003eMOIETY\u003c/ROLE\u003e\n \u003cFRAGMENT_NUMBER/\u003e\n \u003cMOLECULAR_FRAGMENT_NAME\u003eHEME L\u003c/MOLECULAR_FRAGMENT_NAME\u003e\n \u003cMOLECULAR_FRAGMENT_ID\u003e89KZP8XN3K\u003c/MOLECULAR_FRAGMENT_ID\u003e\n \u003cMOLECULAR_FRAGMENT_INCHI\u003eInChI\u003d1S/C34H34N4O6.Fe/c1-5-19-17(3)25-11-28-20(6-2)23(15-39)31(37-28)12-26-18(4)21(7-9-33(41)42)29(36-26)14-30-22(8-10-34(43)44)24(16-40)32(38-30)13-27(19)35-25;/h5-6,11-14,39-40H,1-2,7-10,15-16H2,3-4H3,(H4,35,36,37,38,41,42,43,44);/q;+2/p-2/b25-11-,26-12-,27-13-,28-11-,29-14-,30-14-,31-12-,32-13-;\u003c/MOLECULAR_FRAGMENT_INCHI\u003e\n \u003cFRAGMENT_CONNECTIVTY\u003e 0;\u003c/FRAGMENT_CONNECTIVTY\u003e\n\u003cAMOUNT\u003e\n \u003cAVERAGE/\u003e\n \u003cLOW_LIMIT/\u003e\n \u003cHIGH_LIMIT/\u003e\n \u003cUNIT/\u003e\n \u003cNON_NUMERIC_VALUE/\u003e\n \u003c/AMOUNT\u003e\n \u003c/MOLECULAR_FRAGMENT_MOIETY\u003e\n \u003c/STRUCTURAL_MODIFICATION_GROUP\u003e\n\u003cSTRUCTURAL_MODIFICATION_GROUP\u003e\n \u003cRESIDUE_MODIFIED/\u003e\n \u003cRESIDUE_SITE\u003e2_63;2_92;\u003c/RESIDUE_SITE\u003e\n \u003cNUMBER_OF_FRAGMENTS_MOIETIES\u003e1\u003c/NUMBER_OF_FRAGMENTS_MOIETIES\u003e\n \u003cAMOUNT_TYPE/\u003e\n\u003cMOLECULAR_FRAGMENT_MOIETY\u003e\n \u003cSTRUCTURAL_MODIFICATION_TYPE\u003eMETAL BINDING\u003c/STRUCTURAL_MODIFICATION_TYPE\u003e\n \u003cROLE\u003eMOIETY\u003c/ROLE\u003e\n \u003cFRAGMENT_NUMBER/\u003e\n \u003cMOLECULAR_FRAGMENT_NAME\u003eHEME L\u003c/MOLECULAR_FRAGMENT_NAME\u003e\n \u003cMOLECULAR_FRAGMENT_ID\u003e89KZP8XN3K\u003c/MOLECULAR_FRAGMENT_ID\u003e\n \u003cMOLECULAR_FRAGMENT_INCHI\u003eInChI\u003d1S/C34H34N4O6.Fe/c1-5-19-17(3)25-11-28-20(6-2)23(15-39)31(37-28)12-26-18(4)21(7-9-33(41)42)29(36-26)14-30-22(8-10-34(43)44)24(16-40)32(38-30)13-27(19)35-25;/h5-6,11-14,39-40H,1-2,7-10,15-16H2,3-4H3,(H4,35,36,37,38,41,42,43,44);/q;+2/p-2/b25-11-,26-12-,27-13-,28-11-,29-14-,30-14-,31-12-,32-13-;\u003c/MOLECULAR_FRAGMENT_INCHI\u003e\n \u003cFRAGMENT_CONNECTIVTY\u003e 0;\u003c/FRAGMENT_CONNECTIVTY\u003e\n\u003cAMOUNT\u003e\n \u003cAVERAGE/\u003e\n \u003cLOW_LIMIT/\u003e\n \u003cHIGH_LIMIT/\u003e\n \u003cUNIT/\u003e\n \u003cNON_NUMERIC_VALUE/\u003e\n \u003c/AMOUNT\u003e\n \u003c/MOLECULAR_FRAGMENT_MOIETY\u003e\n \u003c/STRUCTURAL_MODIFICATION_GROUP\u003e\n\u003cSTRUCTURAL_MODIFICATION_GROUP\u003e\n \u003cRESIDUE_MODIFIED/\u003e\n \u003cRESIDUE_SITE\u003e3_58;3_87;\u003c/RESIDUE_SITE\u003e\n \u003cNUMBER_OF_FRAGMENTS_MOIETIES\u003e1\u003c/NUMBER_OF_FRAGMENTS_MOIETIES\u003e\n \u003cAMOUNT_TYPE/\u003e\n\u003cMOLECULAR_FRAGMENT_MOIETY\u003e\n \u003cSTRUCTURAL_MODIFICATION_TYPE\u003eMETAL BINDING\u003c/STRUCTURAL_MODIFICATION_TYPE\u003e\n \u003cROLE\u003eMOIETY\u003c/ROLE\u003e\n \u003cFRAGMENT_NUMBER/\u003e\n \u003cMOLECULAR_FRAGMENT_NAME\u003eHEME L\u003c/MOLECULAR_FRAGMENT_NAME\u003e\n \u003cMOLECULAR_FRAGMENT_ID\u003e89KZP8XN3K\u003c/MOLECULAR_FRAGMENT_ID\u003e\n \u003cMOLECULAR_FRAGMENT_INCHI\u003eInChI\u003d1S/C34H34N4O6.Fe/c1-5-19-17(3)25-11-28-20(6-2)23(15-39)31(37-28)12-26-18(4)21(7-9-33(41)42)29(36-26)14-30-22(8-10-34(43)44)24(16-40)32(38-30)13-27(19)35-25;/h5-6,11-14,39-40H,1-2,7-10,15-16H2,3-4H3,(H4,35,36,37,38,41,42,43,44);/q;+2/p-2/b25-11-,26-12-,27-13-,28-11-,29-14-,30-14-,31-12-,32-13-;\u003c/MOLECULAR_FRAGMENT_INCHI\u003e\n \u003cFRAGMENT_CONNECTIVTY\u003e 0;\u003c/FRAGMENT_CONNECTIVTY\u003e\n\u003cAMOUNT\u003e\n \u003cAVERAGE/\u003e\n \u003cLOW_LIMIT/\u003e\n \u003cHIGH_LIMIT/\u003e\n \u003cUNIT/\u003e\n \u003cNON_NUMERIC_VALUE/\u003e\n \u003c/AMOUNT\u003e\n \u003c/MOLECULAR_FRAGMENT_MOIETY\u003e\n \u003c/STRUCTURAL_MODIFICATION_GROUP\u003e\n\u003cSTRUCTURAL_MODIFICATION_GROUP\u003e\n \u003cRESIDUE_MODIFIED/\u003e\n \u003cRESIDUE_SITE\u003e4_58;4_87;\u003c/RESIDUE_SITE\u003e\n \u003cNUMBER_OF_FRAGMENTS_MOIETIES\u003e1\u003c/NUMBER_OF_FRAGMENTS_MOIETIES\u003e\n \u003cAMOUNT_TYPE/\u003e\n\u003cMOLECULAR_FRAGMENT_MOIETY\u003e\n \u003cSTRUCTURAL_MODIFICATION_TYPE\u003eMETAL BINDING\u003c/STRUCTURAL_MODIFICATION_TYPE\u003e\n \u003cROLE\u003eMOIETY\u003c/ROLE\u003e\n \u003cFRAGMENT_NUMBER/\u003e\n \u003cMOLECULAR_FRAGMENT_NAME\u003eHEME L\u003c/MOLECULAR_FRAGMENT_NAME\u003e\n \u003cMOLECULAR_FRAGMENT_ID\u003e89KZP8XN3K\u003c/MOLECULAR_FRAGMENT_ID\u003e\n \u003cMOLECULAR_FRAGMENT_INCHI\u003eInChI\u003d1S/C34H34N4O6.Fe/c1-5-19-17(3)25-11-28-20(6-2)23(15-39)31(37-28)12-26-18(4)21(7-9-33(41)42)29(36-26)14-30-22(8-10-34(43)44)24(16-40)32(38-30)13-27(19)35-25;/h5-6,11-14,39-40H,1-2,7-10,15-16H2,3-4H3,(H4,35,36,37,38,41,42,43,44);/q;+2/p-2/b25-11-,26-12-,27-13-,28-11-,29-14-,30-14-,31-12-,32-13-;\u003c/MOLECULAR_FRAGMENT_INCHI\u003e\n \u003cFRAGMENT_CONNECTIVTY\u003e 0;\u003c/FRAGMENT_CONNECTIVTY\u003e\n\u003cAMOUNT\u003e\n \u003cAVERAGE/\u003e\n \u003cLOW_LIMIT/\u003e\n \u003cHIGH_LIMIT/\u003e\n \u003cUNIT/\u003e\n \u003cNON_NUMERIC_VALUE/\u003e\n \u003c/AMOUNT\u003e\n \u003c/MOLECULAR_FRAGMENT_MOIETY\u003e\n \u003c/STRUCTURAL_MODIFICATION_GROUP\u003e\n\u003cSTRUCTURAL_MODIFICATION_GROUP\u003e\n \u003cRESIDUE_MODIFIED\u003eVALINE\u003c/RESIDUE_MODIFIED\u003e\n \u003cRESIDUE_SITE\u003e1_1;2_1;3_1;4_1;\u003c/RESIDUE_SITE\u003e\n \u003cNUMBER_OF_FRAGMENTS_MOIETIES\u003e1\u003c/NUMBER_OF_FRAGMENTS_MOIETIES\u003e\n \u003cAMOUNT_TYPE/\u003e\n\u003cMOLECULAR_FRAGMENT_MOIETY\u003e\n \u003cSTRUCTURAL_MODIFICATION_TYPE\u003eAMINO ACID SUBSTITUTION\u003c/STRUCTURAL_MODIFICATION_TYPE\u003e\n \u003cROLE/\u003e\n \u003cFRAGMENT_NUMBER/\u003e\n \u003cMOLECULAR_FRAGMENT_NAME\u003eN-((3-HYDROXY-2-METHYL-5-((PHOSPHONOOXY)METHYL)-4-PYRIDINYL)METHYLENE)-L-VALINE\u003c/MOLECULAR_FRAGMENT_NAME\u003e\n \u003cMOLECULAR_FRAGMENT_ID\u003e8Y0QNU2JVT\u003c/MOLECULAR_FRAGMENT_ID\u003e\n \u003cMOLECULAR_FRAGMENT_INCHI\u003eInChI\u003d1S/C13H19N2O7P/c1-7(2)11(13(17)18)15-5-10-9(6-22-23(19,20)21)4-14-8(3)12(10)16/h4-5,7,11,16H,6H2,1-3H3,(H,17,18)(H2,19,20,21)/b15-5+/t11-/m0/s1\u003c/MOLECULAR_FRAGMENT_INCHI\u003e\n \u003cFRAGMENT_CONNECTIVTY\u003e 0;\u003c/FRAGMENT_CONNECTIVTY\u003e\n\u003cAMOUNT\u003e\n \u003cAVERAGE/\u003e\n \u003cLOW_LIMIT/\u003e\n \u003cHIGH_LIMIT/\u003e\n \u003cUNIT/\u003e\n \u003cNON_NUMERIC_VALUE/\u003e\n \u003c/AMOUNT\u003e\n \u003c/MOLECULAR_FRAGMENT_MOIETY\u003e\n \u003c/STRUCTURAL_MODIFICATION_GROUP\u003e\n\u003cSTRUCTURAL_MODIFICATION_GROUP\u003e\n \u003cRESIDUE_MODIFIED\u003eLYSINE\u003c/RESIDUE_MODIFIED\u003e\n \u003cRESIDUE_SITE\u003e1_82;2_82;1_56;1_127;1_139;2_56;2_127;2_139;3_66;3_95;3_132;3_144;4_66;4_95;4_132;4_144;\u003c/RESIDUE_SITE\u003e\n \u003cNUMBER_OF_FRAGMENTS_MOIETIES\u003e1\u003c/NUMBER_OF_FRAGMENTS_MOIETIES\u003e\n \u003cAMOUNT_TYPE/\u003e\n\u003cMOLECULAR_FRAGMENT_MOIETY\u003e\n \u003cSTRUCTURAL_MODIFICATION_TYPE\u003eAMINO ACID SUBSTITUTION\u003c/STRUCTURAL_MODIFICATION_TYPE\u003e\n \u003cROLE/\u003e\n \u003cFRAGMENT_NUMBER/\u003e\n \u003cMOLECULAR_FRAGMENT_NAME\u003eN6-((3-HYDROXY-2-METHYL-5-((PHOSPHONOOXY)METHYL)-4-PYRIDINYL)METHYLENE)-L-LYSINE\u003c/MOLECULAR_FRAGMENT_NAME\u003e\n \u003cMOLECULAR_FRAGMENT_ID\u003eQM00M3504A\u003c/MOLECULAR_FRAGMENT_ID\u003e\n \u003cMOLECULAR_FRAGMENT_INCHI\u003eInChI\u003d1S/C14H22N3O7P/c1-9-13(18)11(10(6-17-9)8-24-25(21,22)23)7-16-5-3-2-4-12(15)14(19)20/h6-7,12,18H,2-5,8,15H2,1H3,(H,19,20)(H2,21,22,23)/b16-7+/t12-/m0/s1\u003c/MOLECULAR_FRAGMENT_INCHI\u003e\n \u003cFRAGMENT_CONNECTIVTY\u003e 0;\u003c/FRAGMENT_CONNECTIVTY\u003e\n\u003cAMOUNT\u003e\n \u003cAVERAGE/\u003e\n \u003cLOW_LIMIT/\u003e\n \u003cHIGH_LIMIT/\u003e\n \u003cUNIT/\u003e\n \u003cNON_NUMERIC_VALUE/\u003e\n \u003c/AMOUNT\u003e\n \u003c/MOLECULAR_FRAGMENT_MOIETY\u003e\n \u003c/STRUCTURAL_MODIFICATION_GROUP\u003e\n \u003c/MODIFICATION_GROUP\u003e\n\u003cPROPERTY_GROUP\u003e\n \u003cPROPERTY_TYPE/\u003e\n \u003cPROPERTY/\u003e\n\u003cPROPERTY_DESCRIPTION\u003e\n \u003cSUBSTANCE_NAME/\u003e\n \u003cSUBSTANCE_ID/\u003e\n \u003cSUBSTANCE_ID/\u003e\n \u003cAMOUNT_TYPE/\u003e\n\u003cAMOUNT\u003e\n \u003cAVERAGE/\u003e\n \u003cLOW_LIMIT/\u003e\n \u003cHIGH_LIMIT/\u003e\n \u003cUNIT/\u003e\n \u003cNON_NUMERIC_VALUE/\u003e\n \u003c/AMOUNT\u003e\n \u003c/PROPERTY_DESCRIPTION\u003e\n \u003c/PROPERTY_GROUP\u003e\n\u003cMOLECULAR_WEIGHT\u003e\n \u003cMOLECULAR_WEIGHT_TYPE/\u003e\n \u003cMOLECULAR_WEIGHT_METHOD/\u003e\n\u003cAMOUNT\u003e\n \u003cAVERAGE\u003e256000\u003c/AVERAGE\u003e\n \u003cLOW_LIMIT/\u003e\n \u003cHIGH_LIMIT/\u003e\n \u003cUNIT\u003eDa\u003c/UNIT\u003e\n \u003cNON_NUMERIC_VALUE/\u003e\n \u003c/AMOUNT\u003e\n \u003c/MOLECULAR_WEIGHT\u003e\n \u003cCOMMENTS/\u003e\n \u003cPUBLIC_DOMAIN/\u003e\n \u003c/PROTEIN\u003e\n \u003c/ELEMENT_TYPE\u003e\n\u003cREFERENCE_SOURCE_GROUP\u003e\n \u003cPUBLIC_DOMAIN/\u003e\n \u003cREFERENCE_SOURCE_TYPE/\u003e\n \u003cREFERENCE_SOURCE_IDENTIFIER/\u003e\n \u003cREFERENCE_SOURCE_CITATION/\u003e\n \u003c/REFERENCE_SOURCE_GROUP\u003e\n \u003c/SINGLE_SUBSTANCE\u003e\n \u003c/SUBSTANCE\u003e","references":["13af89f2-e5b6-4efe-83ca-fa0a92b3845a"],"access":["protected"]},{"uuid":"4b0e22df-b3c7-46a9-922d-905fe35e9f98","created":1493460065927,"createdBy":"RAMEZ.GHAZZAOUI","lastEdited":1493460065927,"lastEditedBy":"RAMEZ.GHAZZAOUI","deprecated":false,"note":"Legacy Info:\u003cSRS_LEGACY_DATA\u003e\u003cCREATED_BY\u003eSEMENDINGERD\u003c/CREATED_BY\u003e\u003cCREATED_DATE\u003e2008-03-17 17:18:14.0\u003c/CREATED_DATE\u003e\u003cMODIFIED_BY\u003eDAMMIKA.AMUGODA-KANK\u003c/MODIFIED_BY\u003e\u003cMODIFIED_DATE\u003e2015-02-09 18:45:32.0\u003c/MODIFIED_DATE\u003e\u003cAPPROVED_BY\u003eSWITZERF\u003c/APPROVED_BY\u003e\u003cAPPROVED_DATE\u003e2011-11-11 16:35:06.0\u003c/APPROVED_DATE\u003e\u003c/SRS_LEGACY_DATA\u003e","references":["13af89f2-e5b6-4efe-83ca-fa0a92b3845a"],"access":["protected"]}],"properties":[{"uuid":"f7770795-8ff5-469f-8385-9b0315a0095c","created":1493460065936,"createdBy":"RAMEZ.GHAZZAOUI","lastEdited":1493460065936,"lastEditedBy":"RAMEZ.GHAZZAOUI","deprecated":false,"name":"MOL_WEIGHT","type":"amount","propertyType":"CHEMICAL","value":{"uuid":"8359bd11-8d25-4b18-8934-55bc8e873e26","created":1493460065932,"createdBy":"RAMEZ.GHAZZAOUI","lastEdited":1493460065932,"lastEditedBy":"RAMEZ.GHAZZAOUI","deprecated":false,"average":256000.0,"units":"Da","references":[],"access":[]},"defining":false,"parameters":[],"references":[],"access":[]}],"relationships":[],"references":[{"uuid":"af33d353-330f-45df-b8ba-61a9f58e0a70","created":1493460065942,"createdBy":"RAMEZ.GHAZZAOUI","lastEdited":1493460065942,"lastEditedBy":"RAMEZ.GHAZZAOUI","deprecated":false,"citation":"GSRS System-generated Validation messages","docType":"VALIDATION_MESSAGE","documentDate":1493460065801,"publicDomain":false,"tags":[],"access":["admin"],"_self":"/ginas/app/api/v1/references(af33d353-330f-45df-b8ba-61a9f58e0a70)?view\u003dfull"},{"uuid":"22d030b9-abde-46e7-b45a-0f058e5dd8f5","created":1493460065941,"createdBy":"RAMEZ.GHAZZAOUI","lastEdited":1493460065941,"lastEditedBy":"RAMEZ.GHAZZAOUI","deprecated":false,"citation":"jsonDump-2017-04-28--all-but-first-500-records.txt.zip","docType":"BATCH_IMPORT","documentDate":1493460060638,"publicDomain":false,"tags":[],"id":"773bab31c7fb3258757b","access":[],"_self":"/ginas/app/api/v1/references(22d030b9-abde-46e7-b45a-0f058e5dd8f5)?view\u003dfull"},{"uuid":"c72bfccd-e209-4b87-8a30-5e90b144a766","created":1493460065941,"createdBy":"RAMEZ.GHAZZAOUI","lastEdited":1493460065941,"lastEditedBy":"RAMEZ.GHAZZAOUI","deprecated":false,"citation":"HEMOGLOBIN GLUTAMER-256 (HUMAN) [USAN]","docType":"SRS_LOCATOR","publicDomain":true,"tags":[],"access":[],"_self":"/ginas/app/api/v1/references(c72bfccd-e209-4b87-8a30-5e90b144a766)?view\u003dfull"},{"uuid":"13af89f2-e5b6-4efe-83ca-fa0a92b3845a","created":1493460065940,"createdBy":"RAMEZ.GHAZZAOUI","lastEdited":1493460065940,"lastEditedBy":"RAMEZ.GHAZZAOUI","deprecated":false,"citation":"SRS import [353O60Z7Q1]","docType":"SRS","documentDate":1493391490000,"publicDomain":true,"tags":["NOMEN"],"url":"http://fdasis.nlm.nih.gov/srs/srsdirect.jsp?regno\u003d353O60Z7Q1","access":[],"_self":"/ginas/app/api/v1/references(13af89f2-e5b6-4efe-83ca-fa0a92b3845a)?view\u003dfull"},{"uuid":"43fc14d5-ddbe-446c-b6c0-916529b0638f","created":1493460065940,"createdBy":"RAMEZ.GHAZZAOUI","lastEdited":1493460065940,"lastEditedBy":"RAMEZ.GHAZZAOUI","deprecated":false,"citation":"SRS CODE IMPORT","docType":"SRS","documentDate":1493391490000,"publicDomain":true,"tags":["NOMEN"],"access":[],"_self":"/ginas/app/api/v1/references(43fc14d5-ddbe-446c-b6c0-916529b0638f)?view\u003dfull"},{"uuid":"36ce519f-0e96-478a-9ea0-f4bb81de279a","created":1493460065939,"createdBy":"RAMEZ.GHAZZAOUI","lastEdited":1493460065939,"lastEditedBy":"RAMEZ.GHAZZAOUI","deprecated":false,"citation":"USAN 2011","docType":"USP DICTIONARY","publicDomain":false,"tags":["NOMEN"],"access":["protected"],"_self":"/ginas/app/api/v1/references(36ce519f-0e96-478a-9ea0-f4bb81de279a)?view\u003dfull"},{"uuid":"9b0a3539-a06f-4efb-b858-601384225c34","created":1493460065939,"createdBy":"RAMEZ.GHAZZAOUI","lastEdited":1493460065939,"lastEditedBy":"RAMEZ.GHAZZAOUI","deprecated":false,"citation":"USP DICTIONARY 2011","docType":"SRS","publicDomain":true,"tags":["NOMEN"],"access":[],"_self":"/ginas/app/api/v1/references(9b0a3539-a06f-4efb-b858-601384225c34)?view\u003dfull"},{"uuid":"10ab4ed0-c86c-4de9-97b1-ffab1a29672a","created":1493460065938,"createdBy":"RAMEZ.GHAZZAOUI","lastEdited":1493460065938,"lastEditedBy":"RAMEZ.GHAZZAOUI","deprecated":false,"citation":"0313611AA","docType":"BDNUM","publicDomain":false,"tags":["NOMEN"],"access":["protected"],"_self":"/ginas/app/api/v1/references(10ab4ed0-c86c-4de9-97b1-ffab1a29672a)?view\u003dfull"},{"uuid":"618755da-a33e-4667-88ea-8fcdfb5fc33f","created":1493460065937,"createdBy":"RAMEZ.GHAZZAOUI","lastEdited":1493460065937,"lastEditedBy":"RAMEZ.GHAZZAOUI","deprecated":false,"citation":"USAN COUN 2005/6","docType":"SRS","publicDomain":true,"tags":["NOMEN","PUBLIC_DOMAIN_RELEASE","AUTO_SELECTED"],"access":[],"_self":"/ginas/app/api/v1/references(618755da-a33e-4667-88ea-8fcdfb5fc33f)?view\u003dfull"}],"approvalID":"353O60Z7Q1","tags":["USAN"],"protein":{"uuid":"69989d9a-7e13-4b4d-854a-7d260b5fc5fc","created":1493460065832,"createdBy":"RAMEZ.GHAZZAOUI","lastEdited":1493460065832,"lastEditedBy":"RAMEZ.GHAZZAOUI","deprecated":false,"sequenceType":"COMPLETE","glycosylation":{"uuid":"154c7fa4-5ed9-4301-9256-b3832eb7ec9e","created":1493460065818,"createdBy":"RAMEZ.GHAZZAOUI","lastEdited":1493460065818,"lastEditedBy":"RAMEZ.GHAZZAOUI","deprecated":false,"NGlycosylationSites":[],"OGlycosylationSites":[],"CGlycosylationSites":[],"references":[],"access":[]},"subunits":[{"uuid":"b3aba660-9eca-4845-9846-abafb20167dc","created":1493460065832,"createdBy":"RAMEZ.GHAZZAOUI","lastEdited":1493460065832,"lastEditedBy":"RAMEZ.GHAZZAOUI","deprecated":false,"sequence":"VHLTPEEKSAVTALWGKVNVDEVGGEALGRLLVVYPWTQRFFESFGDLSTPDAVMGNPKVKAHGKKVLGAFSDGLAHLDNLKGTFATLSELHCDKLHVDPENFRLLGNVLVCVLAHHFGKEFTPPVQAAYQKVVAGVANALAHKYH","subunitIndex":1,"length":146.0,"references":[],"access":[]},{"uuid":"c9a0115e-2ed4-47f2-9c37-7e313a7423e5","created":1493460065833,"createdBy":"RAMEZ.GHAZZAOUI","lastEdited":1493460065833,"lastEditedBy":"RAMEZ.GHAZZAOUI","deprecated":false,"sequence":"VHLTPEEKSAVTALWGKVNVDEVGGEALGRLLVVYPWTQRFFESFGDLSTPDAVMGNPKVKAHGKKVLGAFSDGLAHLDNLKGTFATLSELHCDKLHVDPENFRLLGNVLVCVLAHHFGKEFTPPVQAAYQKVVAGVANALAHKYH","subunitIndex":2,"length":146.0,"references":[],"access":[]},{"uuid":"56b14015-20ce-4507-ad57-2f2d74653c8f","created":1493460065833,"createdBy":"RAMEZ.GHAZZAOUI","lastEdited":1493460065833,"lastEditedBy":"RAMEZ.GHAZZAOUI","deprecated":false,"sequence":"VLSPADKTNVKAAWGKVGAHAGEYGAEALERMFLSFPTTKTYFPHFDLSHGSAQVKGHGKKVADALTNAVAHVDDMPNALSALSDLHAHKLRVDPVNFKLLSHCLLVTLAAHLPAEFTPAVHASLDKFLASVSTVLTSKYR","subunitIndex":3,"length":141.0,"references":[],"access":[]},{"uuid":"2592251d-0542-42e9-ac76-f30af32d7a63","created":1493460065834,"createdBy":"RAMEZ.GHAZZAOUI","lastEdited":1493460065834,"lastEditedBy":"RAMEZ.GHAZZAOUI","deprecated":false,"sequence":"VLSPADKTNVKAAWGKVGAHAGEYGAEALERMFLSFPTTKTYFPHFDLSHGSAQVKGHGKKVADALTNAVAHVDDMPNALSALSDLHAHKLRVDPVNFKLLSHCLLVTLAAHLPAEFTPAVHASLDKFLASVSTVLTSKYR","subunitIndex":4,"length":141.0,"references":[],"access":[]}],"otherLinks":[],"disulfideLinks":[],"references":["13af89f2-e5b6-4efe-83ca-fa0a92b3845a","618755da-a33e-4667-88ea-8fcdfb5fc33f"],"access":[]},"_name":"HEMOGLOBIN GLUTAMER-256 (HUMAN)","_approvalIDDisplay":"353O60Z7Q1","access":[],"_self":"/ginas/app/api/v1/substances(270e16a3-3bf5-4a22-8e9b-e02d3ae9cc99)?view\u003dfull"}

>  <DESC_PART1>
<SUBSTANCE>
 <SUBSTANCE_ID/>
<NAME_GROUP>
 <NAME/>
 <PUBLIC_DOMAIN/>
 <NAME_TYPE/>
 <LANGUAGE_ISOCODE/>
<OFFICIAL_NAME_GROUP>
 <OFFICIAL_NAME_TYPE/>
 <OFFICIAL_NAME_STATUS/>
 <OFFICIAL_NAME_STATUS_CHANGE_DATE/>
<OFFICIAL_NAME_JURISDICTION_GROUP>
 <OFFICIAL_NAME_JURISDICTION/>
 </OFFICIAL_NAME_JURISDICTION_GROUP>
 <OFFICIAL_NAME_DOMAIN/>
 </OFFICIAL_NAME_GROUP>
<REFERENCE_SOURCE_GROUP>
 <PUBLIC_DOMAIN/>
 <REFERENCE_SOURCE_TYPE/>
 <REFERENCE_SOURCE_IDENTIFIER/>
 <REFERENCE_SOURCE_CITATION/>
 </REFERENCE_SOURCE_GROUP>
 </NAME_GROUP>
<CODE_GROUP>
 <CODE/>
 <CODE_SYSTEM/>
 <CODE_SYSTEM_ID/>
 <CODE_STATUS/>
 <CODE_STATUS_CHANGE_DATE/>
<REFERENCE_SOURCE_GROUP>
 <PUBLIC_DOMAIN/>
 <REFERENCE_SOURCE_TYPE/>
 <REFERENCE_SOURCE_IDENTIFIER/>
 <REFERENCE_SOURCE_CITATION/>
 </REFERENCE_SOURCE_GROUP>
 </CODE_GROUP>
<REFERENCE_INFORMATION>
<SUBSTANCE_RELATIONSHIP_GROUP>
 <RELATIONSHIP/>
 <TYPE_OF_INTERACTION/>
 <SUBSTANCE_ID/>
 <SUBSTANCE_NAME/>
 <RELATIONSHIP/>
 <AMOUNT_TYPE/>
<AMOUNT>
 <AVERAGE/>
 <LOW_LIMIT/>
 <HIGH_LIMIT/>
 <UNIT/>
 <NON_NUMERIC_VALUE/>
 </AMOUNT>
<REFERENCE_SOURCE_GROUP>
 <PUBLIC_DOMAIN/>
 <REFERENCE_SOURCE_TYPE/>
 <REFERENCE_SOURCE_IDENTIFIER/>
 <REFERENCE_SOURCE_CITATION/>
 </REFERENCE_SOURCE_GROUP>
 </SUBSTANCE_RELATIONSHIP_GROUP>
<GENE_GROUP>
 <GENE_SEQUENCE_ORIGIN/>
 <GENE_ID/>
 <GENE_NAME/>
<REFERENCE_SOURCE_GROUP>
 <PUBLIC_DOMAIN/>
 <REFERENCE_SOURCE_TYPE/>
 <REFERENCE_SOURCE_IDENTIFIER/>
 <REFERENCE_SOURCE_CITATION/>
 </REFERENCE_SOURCE_GROUP>
 </GENE_GROUP>
<SUBSTANCE_CLASSIFICATION>
 <DOMAIN/>
 <SUBSTANCE_TYPE/>
 <SUBSTANCE_SUBTYPE/>
<REFERENCE_SOURCE_GROUP>
 <PUBLIC_DOMAIN/>
 <REFERENCE_SOURCE_TYPE/>
 <REFERENCE_SOURCE_IDENTIFIER/>
 <REFERENCE_SOURCE_CITATION/>
 </REFERENCE_SOURCE_GROUP>
 </SUBSTANCE_CLASSIFICATION>
<TARGET_GROUP>
 <TARGET_ORGANISM/>
 <TARGET_TYPE/>
 <TARGET_NAME/>
 <TARGET_ID/>
 <TARGET_ID_SOURCE/>
 <INTERACTION_TYPE/>
<REFERENCE_SOURCE_GROUP>
 <PUBLIC_DOMAIN/>
 <REFERENCE_SOURCE_TYPE/>
 <REFERENCE_SOURCE_IDENTIFIER/>
 <REFERENCE_SOURCE_CITATION/>
 </REFERENCE_SOURCE_GROUP>
 </TARGET_GROUP>
 <COMMENTS/>
 </REFERENCE_INFORMATION>
<SINGLE_SUBSTANCE>
<STRUCTURE>
 <STRUCTURAL_REPRESENTATION_TYPE/>
 <STRUCTURAL_REPRESENTATION/>
 <STEREOCHEMISTRY/>
 <OPTICAL_ACTIVITY/>
 <PUBLIC_DOMAIN/>
<ISOTOPE_GROUP>
 <NUCLIDE_ID/>
 <NUCLIDE_NAME/>
 <SUBSTITUTION_TYPE/>
 </ISOTOPE_GROUP>
 </STRUCTURE>
<ELEMENT_TYPE>
<PROTEIN>
 <SEQUENCE_TYPE>COMPLETE</SEQUENCE_TYPE>
 <NUMBER_OF_SUBUNITS>4</NUMBER_OF_SUBUNITS>
<SUBUNIT_GROUP>
 <SUBUNIT>1</SUBUNIT>
 <LENGTH>146</LENGTH>
 <SEQUENCE>VHLTPEEKSAVTALWGKVNVDEVGGEALGRLLVVYPWTQRFFESFGDLSTPDAVMGNPKVKAHGKKVLGAFSDGLAHLDNLKGTFATLSELHCDKLHVDPENFRLLGNVLVCVLAHHFGKEFTPPVQAAYQKVVAGVANALAHKYH</SEQUENCE>
 </SUBUNIT_GROUP>
<SUBUNIT_GROUP>
 <SUBUNIT>2</SUBUNIT>
 <LENGTH>146</LENGTH>
 <SEQUENCE>VHLTPEEKSAVTALWGKVNVDEVGGEALGRLLVVYPWTQRFFESFGDLSTPDAVMGNPKVKAHGKKVLGAFSDGLAHLDNLKGTFATLSELHCDKLHVDPENFRLLGNVLVCVLAHHFGKEFTPPVQAAYQKVVAGVANALAHKYH</SEQUENCE>
 </SUBUNIT_GROUP>
<SUBUNIT_GROUP>
 <SUBUNIT>3</SUBUNIT>
 <LENGTH>141</LENGTH>
 <SEQUENCE>VLSPADKTNVKAAWGKVGAHAGEYGAEALERMFLSFPTTKTYFPHFDLSHGSAQVKGHGKKVADALTNAVAHVDDMPNALSALSDLHAHKLRVDPVNFKLLSHCLLVTLAAHLPAEFTPAVHASLDKFLASVSTVLTSKYR</SEQUENCE>
 </SUBUNIT_GROUP>
<SUBUNIT_GROUP>
 <SUBUNIT>4</SUBUNIT>
 <LENGTH>141</LENGTH>
 <SEQUENCE>VLSPADKTNVKAAWGKVGAHAGEYGAEALERMFLSFPTTKTYFPHFDLSHGSAQVKGHGKKVADALTNAVAHVDDMPNALSALSDLHAHKLRVDPVNFKLLSHCLLVTLAAHLPAEFTPAVHASLDKFLASVSTVLTSKYR</SEQUENCE>
 </SUBUNIT_GROUP>
 <DISULFIDE_LINKAGE/>
<OTHER_LINKAGE>
 <SITE/>
 <LINKAGE_TYPE/>
<MOLECULAR_FRAGMENT_MOIETY>
 <STRUCTURAL_MODIFICATION_TYPE/>
 <ROLE/>
 <FRAGMENT_NUMBER/>
 <MOLECULAR_FRAGMENT_NAME/>
 <MOLECULAR_FRAGMENT_ID/>
 <MOLECULAR_FRAGMENT_INCHI/>
 <FRAGMENT_CONNECTIVTY> 0;</FRAGMENT_CONNECTIVTY>
<AMOUNT>
 <AVERAGE/>
 <LOW_LIMIT/>
 <HIGH_LIMIT/>
 <UNIT/>
 <NON_NUMERIC_VALUE/>
 </AMOUNT>
 </MOLECULAR_FRAGMENT_MOIETY>
 </OTHER_LINKAGE>
<GLYCOSYLATION>
 <GLYCOSYLATION_TYPE/>
 <N_GLYCOSYLATION/>
 <O_GLYCOSYLATION/>
 <C_GLYCOSYLATION/>
 </GLYCOSYLATION>
<MODIFICATION_GROUP>
<PHYSICAL_MODIFICATION_GROUP>
 <ROLE/>
 <NUMBER_OF_PARAMETERS>0</NUMBER_OF_PARAMETERS>
<PARAMETER_GROUP>
 <PARAMETER/>
<AMOUNT>
 <AVERAGE/>
 <LOW_LIMIT/>
 <HIGH_LIMIT/>
 <UNIT/>
 <NON_NUMERIC_VALUE/>
 </AMOUNT>
 </PARAMETER_GROUP>
 </PHYSICAL_MODIFICATION_GROUP>
<AGENT_MODIFICATION_GROUP>
 <AGENT_MODIFICATION_TYPE/>
 <ROLE/>
 <MODIFICATION_AGENT>GLUTARAL </MODIFICATION_AGENT>
 <MODIFICATION_AGENT_ID>T3C89M417N</MODIFICATION_AGENT_ID>
 <MOLECULAR_FRAGMENT_INCHI>InChI=1S/C5H8O2/c6-4-2-1-3-5-7/h4-5H,1-3H2</MOLECULAR_FRAGMENT_INCHI>
 <MODIFICATION_PROCESS/>
 <AMOUNT_TYPE/>
<AMOUNT>
 <AVERAGE/>
 <LOW_LIMIT/>
 <HIGH_LIMIT/>
 <UNIT/>
 <NON_NUMERIC_VALUE/>
 </AMOUNT>
 </AGENT_MODIFICATION_GROUP>
<STRUCTURAL_MODIFICATION_GROUP>
 <RESIDUE_MODIFIED/>
 <RESIDUE_SITE>1_63;1_92;</RESIDUE_SITE>
 <NUMBER_OF_FRAGMENTS_MOIETIES>1</NUMBER_OF_FRAGMENTS_MOIETIES>
 <AMOUNT_TYPE/>
<MOLECULAR_FRAGMENT_MOIETY>
 <STRUCTURAL_MODIFICATION_TYPE>METAL BINDING</STRUCTURAL_MODIFICATION_TYPE>
 <ROLE>MOIETY</ROLE>
 <FRAGMENT_NUMBER/>
 <MOLECULAR_FRAGMENT_NAME>HEME L</MOLECULAR_FRAGMENT_NAME>
 <MOLECULAR_FRAGMENT_ID>89KZP8XN3K</MOLECULAR_FRAGMENT_ID>
 <MOLECULAR_FRAGMENT_INCHI>InChI=1S/C34H34N4O6.Fe/c1-5-19-17(3)25-11-28-20(6-2)23(15-39)31(37-28)12-26-18(4)21(7-9-33(41)42)29(36-26)14-30-22(8-10-34(43)44)24(16-40)32(38-30)13-27(19)35-25;/h5-6,11-14,39-40H,1-2,7-10,15-16H2,3-4H3,(H4,35,36,37,38,41,42,43,44);/q;+2/p-2/b25-11-,26-12-,27-13-,28-11-,29-14-,30-14-,31-12-,32-13-;</MOLECULAR_FRAGMENT_INCHI>
 <FRAGMENT_CONNECTIVTY> 0;</FRAGMENT_CONNECTIVTY>
<AMOUNT>
 <AVERAGE/>
 <LOW_LIMIT/>
 <HIGH_LIMIT/>
 <UNIT/>
 <NON_NUMERIC_VALUE/>
 </AMOUNT>
 </MOLECULAR_FRAGMENT_MOIETY>
 </STRUCTURAL_MODIFICATION_GROUP>
<STRUCTURAL_MODIFICATION_GROUP>
 <RESIDUE_MODIFIED/>
 <RESIDUE_SITE>2_63;2_92;</RESIDUE_SITE>
 <NUMBER_OF_FRAGMENTS_MOIETIES>1</NUMBER_OF_FRAGMENTS_MOIETIES>
 <AMOUNT_TYPE/>
<MOLECULAR_FRAGMENT_MOIETY>
 <STRUCTURAL_MODIFICATION_TYPE>METAL BINDING</STRUCTURAL_MODIFICATION_TYPE>
 <ROLE>MOIETY</ROLE>
 <FRAGMENT_NUMBER/>
 <MOLECULAR_FRAGMENT_NAME>HEME L</MOLECULAR_FRAGMENT_NAME>
 <MOLECULAR_FRAGMENT_ID>89KZP8XN3K</MOLECULAR_FRAGMENT_ID>
 <MOLECULAR_FRAGMENT_INCHI>InChI=1S/C34H34N4O6.Fe/c1-5-19-17(3)25-11-28-20(6-2)23(15-39)31(37-28)12-26-18(4)21(7-9-33(41)42)29(36-26)14-30-22(8-10-34(43)44)24(16-40)32(38-30)13-27(19)35-25;/h5-6,11-14,39-40H,1-2,7-10,15-16H2,3-4H3,(H4,35,36,37,38,41,42,43,44);/q;+2/p-2/b25-11-,26-12-,27-13-,28-11-,29-14-,30-14-,31-12-,32-13-;</MOLECULAR_FRAGMENT_INCHI>
 <FRAGMENT_CONNECTIVTY> 0;</FRAGMENT_CONNECTIVTY>
<AMOUNT>
 <AVERAGE/>
 <LOW_LIMIT/>
 <HIGH_LIMIT/>
 <UNIT/>
 <NON_NUMERIC_VALUE/>
 </AMOUNT>
 </MOLECULAR_FRAGMENT_MOIETY>
 </STRUCTURAL_MODIFICATION_GROUP>
<STRUCTURAL_MODIFICATION_GROUP>
 <RESIDUE_MODIFIED/>
 <RESIDUE_SITE>3_58;3_87;</RESIDUE_SITE>
 <NUMBER_OF_FRAGMENTS_MOIETIES>1</NUMBER_OF_FRAGMENTS_MOIETIES>
 <AMOUNT_TYPE/>
<MOLECULAR_FRAGMENT_MOIETY>
 <STRUCTURAL_MODIFICATION_TYPE>METAL BINDING</STRUCTURAL_MODIFICATION_TYPE>
 <ROLE>MOIETY</ROLE>
 <FRAGMENT_NUMBER/>
 <MOLECULAR_FRAGMENT_NAME>HEME L</MOLECULAR_FRAGMENT_NAME>
 <MOLECULAR_FRAGMENT_ID>89KZP8XN3K</MOLECULAR_FRAGMENT_ID>
 <MOLECULAR_FRAGMENT_INCHI>InChI=1S/C34H34N4O6.Fe/c1-5-19-17(3)25-11-28-20(6-2)23(15-39)31(37-28)12-26-18(4)21(7-9-33(41)42)29(36-26)14-30-22(8-10-34(43)44)24(16-40)32(38-30)13-27(19)35-25;/h5-6,11-14,39-40H,1-2,7-10,15-16H2,3-4H3,(H4,35,36,37,38,41,42,43,44);/q;+2/p-2/b25-11-,26-12-,27-13-,28-11-,29-14-,30-14-,31-12-,32-13-;</MOLECULAR_FRAGMENT_INCHI>
 <FRAGMENT_CONNECTIVTY> 0;</FRAGMENT_CONNECTIVTY>
<AMOUNT>
 <AVERAGE/>
 <LOW_LIMIT/>
 <HIGH_LIMIT/>
 <UNIT/>
 <NON_NUMERIC_VALUE/>
 </AMOUNT>
 </MOLECULAR_FRAGMENT_MOIETY>
 </STRUCTURAL_MODIFICATION_GROUP>
<STRUCTURAL_MODIFICATION_GROUP>
 <RESIDUE_MODIFIED/>
 <RESIDUE_SITE>4_58;4_87;</RESIDUE_SITE>
 <NUMBER_OF_FRAGMENTS_MOIETIES>1</NUMBER_OF_FRAGMENTS_MOIETIES>
 <AMOUNT_TYPE/>
<MOLECULAR_FRAGMENT_MOIETY>
 <STRUCTURAL_MODIFICATION_TYPE>METAL BINDING</STRUCTURAL_MODIFICATION_TYPE>
 <ROLE>MOIETY</ROLE>
 <FRAGMENT_NUMBER/>
 <MOLECULAR_FRAGMENT_NAME>HEME L</MOLECULAR_FRAGMENT_NAME>
 <MOLECULAR_FRAGMENT_ID>89KZP8XN3K</MOLECULAR_FRAGMENT_ID>
 <MOLECULAR_FRAGMENT_INCHI>InChI=1S/C34H34N4O6.Fe/c1-5-19-17(3)25-11-28-20(6-2)23(15-39)31(37-28)12-26-18(4)21(7-9-33(41)42)29(36-26)14-30-22(8-10-34(43)44)24(16-40)32(38-30)13-27(19)35-25;/h5-6,11-14,39-40H,1-2,7-10,15-16H2,3-4H3,(H4,35,36,37,38,41,42,43,44);/q;+2/p-2/b25-11-,26-12-,27-13-,28-11-,29-14-,30-14-,31-12-,32-13-;</MOLECULAR_FRAGMENT_INCHI>
 <FRAGMENT_CONNECTIVTY> 0;</FRAGMENT_CONNECTIVTY>
<AMOUNT>
 <AVERAGE/>
 <LOW_LIMIT/>
 <HIGH_LIMIT/>
 <UNIT/>
 <NON_NUMERIC_VALUE/>
 </AMOUNT>
 </MOLECULAR_FRAGMENT_MOIETY>
 </STRUCTURAL_MODIFICATION_GROUP>
<STRUCTURAL_MODIFICATION_GROUP>
 <RESIDUE_MODIFIED>VALINE</RESIDUE_MODIFIED>
 <RESIDUE_SITE>1_1;2_1;3_1;4_1;</RESIDUE_SITE>
 <NUMBER_OF_FRAGMENTS_MOIETIES>1</NUMBER_OF_FRAGMENTS_MOIETIES>
 <AMOUNT_TYPE/>
<MOLECULAR_FRAGMENT_MOIETY>
 <STRUCTURAL_MODIFICATION_TYPE>AMINO ACID SUBSTITUTION</STRUCTURAL_MODIFICATION_TYPE>
 <ROLE/>
 <FRAGMENT_NUMBER/>
 <MOLECULAR_FRAGMENT_NAME>N-((3-HYDROXY-2-METHYL-5-((PHOSPHONOOXY)METHYL)-4-PYRIDINYL)METHYLENE)-L-VALINE</MOLECULAR_FRAGMENT_NAME>
 <MOLECULAR_FRAGMENT_ID>8Y0QNU2JVT</MOLECULAR_FRAGMENT_ID>
 <MOLECULAR_FRAGMENT_INCHI>InChI=1S/C13H19N2O7P/c1-7(2)11(13(17)18)15-5-10-9(6-22-23(19,20)21)4-14-8(3)12(10)16/h4-5,7,11,16H,6H2,1-3H3,(H,17,18)(H2,19,20,21)/b15-5+/t11-/m0/s1</MOLECULAR_FRAGMENT_INCHI>
 <FRAGMENT_CONNECTIVTY> 0;</FRAGMENT_CONNECTIVTY>
<AMOUNT>
 <AVERAGE/>
 <LOW_LIMIT/>
 <HIGH_LIMIT/>
 <UNIT/>
 <NON_NUMERIC_VALUE/>
 </AMOUNT>
 </MOLECULAR_FRAGMENT_MOIETY>
 </STRUCTURAL_MODIFICATION_GROUP>
<STRUCTURAL_MODIFICATION_GROUP>
 <RESIDUE_MODIFIED>LYSINE</RESIDUE_MODIFIED>
 <RESIDUE_SITE>1_82;2_82;1_56;1_127;1_139;2_56;2_127;2_139;3_66;3_95;3_132;3_144;4_66;4_95;4_132;4_144;</RESIDUE_SITE>
 <NUMBER_OF_FRAGMENTS_MOIETIES>1</NUMBER_OF_FRAGMENTS_MOIETIES>
 <AMOUNT_TYPE/>
<MOLECULAR_FRAGMENT_MOIETY>
 <STRUCTURAL_MODIFICATION_TYPE>AMINO ACID SUBSTITUTION</STRUCTURAL_MODIFICATION_TYPE>
 <ROLE/>
 <FRAGMENT_NUMBER/>
 <MOLECULAR_FRAGMENT_NAME>N6-((3-HYDROXY-2-METHYL-5-((PHOSPHONOOXY)METHYL)-4-PYRIDINYL)METHYLENE)-L-LYSINE</MOLECULAR_FRAGMENT_NAME>
 <MOLECULAR_FRAGMENT_ID>QM00M3504A</MOLECULAR_FRAGMENT_ID>
 <MOLECULAR_FRAGMENT_INCHI>InChI=1S/C14H22N3O7P/c1-9-13(18)11(10(6-17-9)8-24-25(21,22)23)7-16-5-3-2-4-12(15)14(19)20/h6-7,12,18H,2-5,8,15H2,1H3,(H,19,20)(H2,21,22,23)/b16-7+/t12-/m0/s1</MOLECULAR_FRAGMENT_INCHI>
 <FRAGMENT_CONNECTIVTY> 0;</FRAGMENT_CONNECTIVTY>
<AMOUNT>
 <AVERAGE/>
 <LOW_LIMIT/>
 <HIGH_LIMIT/>
 <UNIT/>
 <NON_NUMERIC_VALUE/>
 </AMOUNT>
 </MOLECULAR_FRAGMENT_MOIETY>
 </STRUCTURAL_MODIFICATION_GROUP>
 </MODIFICATION_GROUP>
<PROPERTY_GROUP>
 <PROPERTY_TYPE/>
 <PROPERTY/>
<PROPERTY_DESCRIPTION>
 <SUBSTANCE_NAME/>
 <SUBSTANCE_ID/>
 <SUBSTANCE_ID/>
 <AMOUNT_TYPE/>
<AMOUNT>
 <AVERAGE/>
 <LOW_LIMIT/>
 <HIGH_LIMIT/>
 <UNIT/>
 <NON_NUMERIC_VALUE/>
 </AMOUNT>
 </PROPERTY_DESCRIPTION>
 </PROPERTY_GROUP>
<MOLECULAR_WEIGHT>
 <MOLECULAR_WEIGHT_TYPE/>
 <MOLECULAR_WEIGHT_METHOD/>
<AMOUNT>
 <AVERAGE>256000</AVERAGE>
 <LOW_LIMIT/>
 <HIGH_LIMIT/>
 <UNIT>Da</UNIT>
 <NON_NUMERIC_VALUE/>
 </AMOUNT>
 </MOLECULAR_WEIGHT>
 <COMMENTS/>
 <PUBLIC_DOMAIN/>
 </PROTEIN>
 </ELEMENT_TYPE>
<REFERENCE_SOURCE_GROUP>
 <PUBLIC_DOMAIN/>
 <REFERENCE_SOURCE_TYPE/>
 <REFERENCE_SOURCE_IDENTIFIER/>
 <REFERENCE_SOURCE_CITATION/>
 </REFERENCE_SOURCE_GROUP>
 </SINGLE_SUBSTANCE>
 </SUBSTANCE>

>  <STRUCTURE_ID>
5471e72e-15ab-3dcb-bc8a-4a19efe9b3c4

>  <UNII>
353O60Z7Q1

>  <SUBSTANCE_ID>
270e16a3-3bf5-4a22-8e9b-e02d3ae9cc99

>  <COMMENTS>
Modified residue sites are not specified in USAN (residue sites are questionable); Could not add Arg (3_104;4_104) modification (N-((3-HYDROXY-2-METHYL-5-((PHOSPHONOOXY)METHYL)-4-PYRIDINYL)METHYLENE)-L-ARGININE) because of 12000 character limit

>  <REF_INFO_PART1>


$$$$