
  Symyx   06031522062D 1   1.00000     0.00000     0

 95 98  0     1  0            999 V2000
   18.7077  -14.4375    0.0000 C   0  0  0  0  0  0           0  0  0
   17.8300  -15.2279    0.0000 C   0  0  1  0  0  0           0  0  0
   16.7067  -14.8629    0.0000 N   0  0  0  0  0  0           0  0  0
   15.8290  -15.6532    0.0000 C   0  0  0  0  0  0           0  0  0
   16.0745  -16.8085    0.0000 O   0  0  0  0  0  0           0  0  0
   14.7057  -15.2882    0.0000 C   0  0  1  0  0  0           0  0  0
   13.7501  -15.9825    0.0000 N   0  0  3  0  0  0           0  0  0
   13.7502  -17.1636    0.0000 C   0  0  0  0  0  0           0  0  0
   12.7273  -17.7541    0.0000 C   0  0  2  0  0  0           0  0  0
   11.7044  -17.1636    0.0000 C   0  0  0  0  0  0           0  0  0
   10.6816  -17.7541    0.0000 C   0  0  0  0  0  0           0  0  0
    9.6588  -17.1636    0.0000 C   0  0  0  0  0  0           0  0  0
    8.6359  -17.7541    0.0000 N   0  0  0  0  0  0           0  0  0
    7.6130  -17.1636    0.0000 C   0  0  0  0  0  0           0  0  0
    7.6130  -15.9825    0.0000 N   0  0  0  0  0  0           0  0  0
    6.5902  -17.7541    0.0000 N   0  0  0  0  0  0           0  0  0
   12.7273  -18.9352    0.0000 N   0  0  0  0  0  0           0  0  0
   14.7730  -17.7541    0.0000 O   0  0  0  0  0  0           0  0  0
   12.7946  -15.2882    0.0000 C   0  0  0  0  0  0           0  0  0
   13.1596  -14.1649    0.0000 C   0  0  0  0  0  0           0  0  0
   14.3407  -14.1649    0.0000 C   0  0  0  0  0  0           0  0  0
   18.0756  -16.3831    0.0000 C   0  0  0  0  0  0           0  0  0
   19.2452  -16.5475    0.0000 C   0  0  0  0  0  0           0  0  0
   19.6876  -17.6426    0.0000 C   0  0  0  0  0  0           0  0  0
   20.8572  -17.8070    0.0000 C   0  0  0  0  0  0           0  0  0
   21.2997  -18.9021    0.0000 N   0  0  0  0  0  0           0  0  0
   18.4622  -13.2823    0.0000 O   0  0  0  0  0  0           0  0  0
   19.8310  -14.8025    0.0000 N   0  0  3  0  0  0           0  0  0
   20.7865  -14.1083    0.0000 C   0  0  2  0  0  0           0  0  0
   20.7865  -12.9272    0.0000 C   0  0  0  0  0  0           0  0  0
   21.8094  -12.3366    0.0000 N   0  0  0  0  0  0           0  0  0
   22.8323  -12.9272    0.0000 C   0  0  2  0  0  0           0  0  0
   23.8551  -12.3366    0.0000 C   0  0  0  0  0  0           0  0  0
   24.8780  -12.9272    0.0000 N   0  0  0  0  0  0           0  0  0
   25.9008  -12.3366    0.0000 C   0  0  2  0  0  0           0  0  0
   26.9237  -12.9272    0.0000 C   0  0  0  0  0  0           0  0  0
   27.9466  -12.3366    0.0000 N   0  0  0  0  0  0           0  0  0
   28.9694  -12.9272    0.0000 C   0  0  1  0  0  0           0  0  0
   28.9694  -14.1083    0.0000 C   0  0  0  0  0  0           0  0  0
   29.9923  -14.6988    0.0000 C   0  0  0  0  0  0           0  0  0
   29.9923  -15.8799    0.0000 C   0  0  0  0  0  0           0  0  0
   31.0152  -16.4705    0.0000 C   0  0  0  0  0  0           0  0  0
   32.0380  -15.8799    0.0000 C   0  0  0  0  0  0           0  0  0
   32.0380  -14.6988    0.0000 C   0  0  0  0  0  0           0  0  0
   31.0152  -14.1083    0.0000 C   0  0  0  0  0  0           0  0  0
   29.9923  -12.3366    0.0000 C   0  0  0  0  0  0           0  0  0
   31.0152  -12.9272    0.0000 N   0  0  0  0  0  0           0  0  0
   32.0380  -12.3366    0.0000 C   0  0  1  0  0  0           0  0  0
   32.0380  -11.1555    0.0000 C   0  0  0  0  0  0           0  0  0
   33.0609  -10.5650    0.0000 C   0  0  0  0  0  0           0  0  0
   33.0609   -9.3839    0.0000 C   0  0  0  0  0  0           0  0  0
   34.0838   -8.7933    0.0000 C   0  0  0  0  0  0           0  0  0
   35.1066   -9.3839    0.0000 C   0  0  0  0  0  0           0  0  0
   35.1066  -10.5650    0.0000 C   0  0  0  0  0  0           0  0  0
   34.0838  -11.1555    0.0000 C   0  0  0  0  0  0           0  0  0
   33.0609  -12.9272    0.0000 C   0  0  0  0  0  0           0  0  0
   34.0838  -12.3366    0.0000 N   0  0  0  0  0  0           0  0  0
   35.1066  -12.9272    0.0000 C   0  0  0  0  0  0           0  0  0
   36.1295  -12.3366    0.0000 C   0  0  0  0  0  0           0  0  0
   37.1523  -12.9272    0.0000 N   0  0  0  0  0  0           0  0  0
   38.1752  -12.3366    0.0000 C   0  0  2  0  0  0           0  0  0
   38.1752  -11.1555    0.0000 C   0  0  0  0  0  0           0  0  0
   39.1981  -10.5650    0.0000 N   0  0  0  0  0  0           0  0  0
   40.2209  -11.1555    0.0000 C   0  0  1  0  0  0           0  0  0
   40.2209  -12.3366    0.0000 C   0  0  0  0  0  0           0  0  0
   41.2438  -12.9272    0.0000 C   0  0  0  0  0  0           0  0  0
   41.2438  -14.1083    0.0000 S   0  0  0  0  0  0           0  0  0
   42.2667  -14.6988    0.0000 C   0  0  0  0  0  0           0  0  0
   41.2438  -10.5650    0.0000 C   0  0  0  0  0  0           0  0  0
   42.2667  -11.1555    0.0000 N   0  0  0  0  0  0           0  0  0
   41.2438   -9.3839    0.0000 O   0  0  0  0  0  0           0  0  0
   37.1523  -10.5650    0.0000 O   0  0  0  0  0  0           0  0  0
   39.1981  -12.9272    0.0000 C   0  0  0  0  0  0           0  0  0
   39.1981  -14.1083    0.0000 C   0  0  3  0  0  0           0  0  0
   40.2210  -14.6988    0.0000 C   0  0  0  0  0  0           0  0  0
   38.1752  -14.6988    0.0000 C   0  0  0  0  0  0           0  0  0
   36.1295  -11.1555    0.0000 O   0  0  0  0  0  0           0  0  0
   33.0609  -14.1083    0.0000 O   0  0  0  0  0  0           0  0  0
   29.9923  -11.1555    0.0000 O   0  0  0  0  0  0           0  0  0
   26.9237  -14.1083    0.0000 O   0  0  0  0  0  0           0  0  0
   25.9008  -11.1555    0.0000 C   0  0  0  0  0  0           0  0  0
   27.0107  -10.7516    0.0000 C   0  0  0  0  0  0           0  0  0
   27.2158   -9.5884    0.0000 C   0  0  0  0  0  0           0  0  0
   28.3257   -9.1845    0.0000 N   0  0  0  0  0  0           0  0  0
   26.3110   -8.8292    0.0000 O   0  0  0  0  0  0           0  0  0
   23.8551  -11.1555    0.0000 O   0  0  0  0  0  0           0  0  0
   22.8323  -14.1083    0.0000 C   0  0  0  0  0  0           0  0  0
   23.9421  -14.5122    0.0000 C   0  0  0  0  0  0           0  0  0
   24.1472  -15.6754    0.0000 C   0  0  0  0  0  0           0  0  0
   25.2571  -16.0794    0.0000 N   0  0  0  0  0  0           0  0  0
   23.2425  -16.4346    0.0000 O   0  0  0  0  0  0           0  0  0
   19.7637  -12.3366    0.0000 O   0  0  0  0  0  0           0  0  0
   21.7421  -14.8025    0.0000 C   0  0  0  0  0  0           0  0  0
   21.3771  -15.9258    0.0000 C   0  0  0  0  0  0           0  0  0
   20.1960  -15.9258    0.0000 C   0  0  0  0  0  0           0  0  0
  1  2  1  0     0  0
  2  3  1  0     0  0
  3  4  1  0     0  0
  4  5  2  0     0  0
  6  4  1  1     0  0
  6  7  1  0     0  0
  7  8  1  0     0  0
  8  9  1  0     0  0
  9 10  1  0     0  0
 10 11  1  0     0  0
 11 12  1  0     0  0
 12 13  1  0     0  0
 13 14  1  0     0  0
 14 15  2  0     0  0
 14 16  1  0     0  0
  9 17  1  1     0  0
  8 18  2  0     0  0
  7 19  1  0     0  0
 19 20  1  0     0  0
 21 20  1  0     0  0
  6 21  1  0     0  0
  2 22  1  6     0  0
 22 23  1  0     0  0
 23 24  1  0     0  0
 24 25  1  0     0  0
 25 26  1  0     0  0
  1 27  2  0     0  0
  1 28  1  0     0  0
 28 29  1  0     0  0
 29 30  1  6     0  0
 30 31  1  0     0  0
 31 32  1  0     0  0
 32 33  1  0     0  0
 33 34  1  0     0  0
 34 35  1  0     0  0
 35 36  1  0     0  0
 36 37  1  0     0  0
 37 38  1  0     0  0
 38 39  1  6     0  0
 39 40  1  0     0  0
 40 41  2  0     0  0
 41 42  1  0     0  0
 42 43  2  0     0  0
 44 43  1  0     0  0
 45 44  2  0     0  0
 40 45  1  0     0  0
 38 46  1  0     0  0
 46 47  1  0     0  0
 47 48  1  0     0  0
 48 49  1  1     0  0
 49 50  1  0     0  0
 50 51  2  0     0  0
 51 52  1  0     0  0
 52 53  2  0     0  0
 54 53  1  0     0  0
 55 54  2  0     0  0
 50 55  1  0     0  0
 48 56  1  0     0  0
 56 57  1  0     0  0
 57 58  1  0     0  0
 58 59  1  0     0  0
 59 60  1  0     0  0
 60 61  1  0     0  0
 61 62  1  6     0  0
 62 63  1  0     0  0
 63 64  1  0     0  0
 64 65  1  0     0  0
 65 66  1  0     0  0
 66 67  1  0     0  0
 67 68  1  0     0  0
 64 69  1  6     0  0
 69 70  1  0     0  0
 69 71  2  0     0  0
 62 72  2  0     0  0
 61 73  1  0     0  0
 73 74  1  0     0  0
 74 75  1  0     0  0
 74 76  1  0     0  0
 59 77  2  0     0  0
 56 78  2  0     0  0
 46 79  2  0     0  0
 36 80  2  0     0  0
 35 81  1  1     0  0
 81 82  1  0     0  0
 82 83  1  0     0  0
 83 84  1  0     0  0
 83 85  2  0     0  0
 33 86  2  0     0  0
 32 87  1  6     0  0
 87 88  1  0     0  0
 88 89  1  0     0  0
 89 90  1  0     0  0
 89 91  2  0     0  0
 30 92  2  0     0  0
 29 93  1  0     0  0
 93 94  1  0     0  0
 95 94  1  0     0  0
 28 95  1  0     0  0
M  END
> <SUBSTANCE_ID>
11326

> <UNII>
675VGV5J1D

> <DESC_PART1>
<PROTEIN>
 <SEQUENCE_TYPE>COMPLETE</SEQUENCE_TYPE>
 <NUMBER_OF_SUBUNITS>1</NUMBER_OF_SUBUNITS>
<SUBUNIT_GROUP>
 <SUBUNIT>1</SUBUNIT>
 <LENGTH>11</LENGTH>
 <SEQUENCE>RPKPQQFFGLM</SEQUENCE>
 </SUBUNIT_GROUP>
 <DISULFIDE_LINKAGE/>
<OTHER_LINKAGE>
 <SITE/>
 <LINKAGE_TYPE/>
 </OTHER_LINKAGE>
 <GLYCOSYLATION/>
<MODIFICATION_GROUP>
<STRUCTURAL_MODIFICATION_GROUP>
 <RESIDUE_MODIFIED/>
 <RESIDUE_SITE>1_1</RESIDUE_SITE>
 <NUMBER_OF_FRAGMENTS_MOIETIES>1</NUMBER_OF_FRAGMENTS_MOIETIES>
 <AMOUNT_TYPE/>
<MOLECULAR_FRAGMENT_MOIETY>
 <STRUCTURAL_MODIFICATION_TYPE>AMINO ACID SUBSTITUTION</STRUCTURAL_MODIFICATION_TYPE>
 <ROLE/>
 <FRAGMENT_NUMBER>1</FRAGMENT_NUMBER>
 <MOLECULAR_FRAGMENT_NAME>ARGININE</MOLECULAR_FRAGMENT_NAME>
 <MOLECULAR_FRAGMENT_ID>94ZLA3W45F</MOLECULAR_FRAGMENT_ID>
 <MOLECULAR_FRAGMENT_INCHI/>
 <FRAGMENT_CONNECTIVITY>0;2</FRAGMENT_CONNECTIVITY>
 <MOLFILE><![CDATA[C6H14N4O2
YUtclcactv06271517022D 0   0.00000     0.00000     1
 
 12 11  0  0  1  0  0  0  0  0999 V2000
    2.3000   -3.8792    0.0000 C   0  0  0  0  0  0  0  0  0  0  0  0
    9.2167   -3.8917    0.0000 C   0  0  0  0  0  0  0  0  0  0  0  0
    2.2792   -2.5500    0.0000 N   0  0  0  0  0  0  0  0  0  0  0  0
    9.2167   -2.5750    0.0000 O   0  0  0  0  0  0  0  0  0  0  0  0
    3.4292   -4.5667    0.0000 N   0  0  0  0  0  0  0  0  0  0  0  0
    8.0625   -4.5667    0.0000 C   0  0  0  0  0  0  0  0  0  0  0  0
    1.1375   -4.5500    0.0000 N   0  0  0  0  0  0  0  0  0  0  0  0
   10.3542   -4.5417    0.0000 O   0  0  0  0  0  0  0  0  0  0  0  0
    8.0625   -5.8875    0.0000 N   0  0  0  0  0  0  0  0  0  0  0  0
    4.5917   -3.8917    0.0000 C   0  0  0  0  0  0  0  0  0  0  0  0
    6.8917   -3.8792    0.0000 C   0  0  0  0  0  0  0  0  0  0  0  0
    5.7125   -4.5500    0.0000 C   0  0  0  0  0  0  0  0  0  0  0  0
  2  6  1  0  0  0  0
  1  3  2  0  0  0  0
  2  4  2  0  0  0  0
  1  5  1  0  0  0  0
  6 11  1  0  0  0  0
  1  7  1  0  0  0  0
  2  8  1  0  0  0  0
  6  9  1  1  0  0  0
  5 10  1  0  0  0  0
 11 12  1  0  0  0  0
 10 12  1  0  0  0  0
M  END
]]></MOLFILE>
 <AMOUNT/>
 </MOLECULAR_FRAGMENT_MOIETY>
 </STRUCTURAL_MODIFICATION_GROUP>
<STRUCTURAL_MODIFICATION_GROUP>
 <RESIDUE_MODIFIED/>
 <RESIDUE_SITE>1_11</RESIDUE_SITE>
 <NUMBER_OF_FRAGMENTS_MOIETIES>1</NUMBER_OF_FRAGMENTS_MOIETIES>
 <AMOUNT_TYPE/>
<MOLECULAR_FRAGMENT_MOIETY>
 <STRUCTURAL_MODIFICATION_TYPE>AMINO ACID SUBSTITUTION</STRUCTURAL_MODIFICATION_TYPE>
 <ROLE/>
 <FRAGMENT_NUMBER>1</FRAGMENT_NUMBER>
 <MOLECULAR_FRAGMENT_NAME>L-METHIONINE AMIDE</MOLECULAR_FRAGMENT_NAME>
 <MOLECULAR_FRAGMENT_ID>QSM06A70MD</MOLECULAR_FRAGMENT_ID>
 <MOLECULAR_FRAGMENT_INCHI/>
 <FRAGMENT_CONNECTIVITY>4;0</FRAGMENT_CONNECTIVITY>
 <MOLFILE><![CDATA[C5H12N2OS
YUtclcactv06271517022D 0   0.00000     0.00000     1
 
  9  8  0  0  1  0  0  0  0  0999 V2000
    6.6280   -2.7320    0.0000 C   0  0  0  0  0  0  0  0  0  0  0  0
    6.6280   -1.9820    0.0000 O   0  0  0  0  0  0  0  0  0  0  0  0
    5.9822   -3.1070    0.0000 C   0  0  0  0  0  0  0  0  0  0  0  0
    5.3322   -2.7362    0.0000 N   0  0  0  0  0  0  0  0  0  0  0  0
    5.9822   -3.8612    0.0000 C   0  0  0  0  0  0  0  0  0  0  0  0
    5.3239   -4.2279    0.0000 C   0  0  0  0  0  0  0  0  0  0  0  0
    4.6739   -3.8529    0.0000 S   0  0  0  0  0  0  0  0  0  0  0  0
    4.0156   -4.2279    0.0000 C   0  0  0  0  0  0  0  0  0  0  0  0
    7.2780   -3.1029    0.0000 N   0  0  0  0  0  0  0  0  0  0  0  0
  1  2  2  0  0  0  0
  1  3  1  0  0  0  0
  3  4  1  0  0  0  0
  3  5  1  6  0  0  0
  5  6  1  0  0  0  0
  6  7  1  0  0  0  0
  7  8  1  0  0  0  0
  1  9  1  0  0  0  0
M  END
]]></MOLFILE>
<AMOUNT>
 <AVERAGE/>
 <LOW_LIMIT/>
 <HIGH_LIMIT/>
 <UNIT/>
 <NON_NUMERIC_VALUE/>
 </AMOUNT>
 </MOLECULAR_FRAGMENT_MOIETY>
 </STRUCTURAL_MODIFICATION_GROUP>
 </MODIFICATION_GROUP>
<PROPERTY_GROUP>
 <PROPERTY_TYPE/>
 <PROPERTY/>
<PROPERTY_DESCRIPTION>
 <SUBSTANCE_NAME/>
 <AMOUNT_TYPE/>
<AMOUNT>
 <AVERAGE/>
 <LOW_LIMIT/>
 <HIGH_LIMIT/>
 <UNIT/>
 <NON_NUMERIC_VALUE/>
 </AMOUNT>
 </PROPERTY_DESCRIPTION>
 </PROPERTY_GROUP>
<MOLECULAR_WEIGHT>
 <MOLECULAR_WEIGHT_TYPE>NUMBER AVERAGE</MOLECULAR_WEIGHT_TYPE>
 <MOLECULAR_WEIGHT_METHOD>CALCULATED</MOLECULAR_WEIGHT_METHOD>
<AMOUNT>
 <AVERAGE>1348</AVERAGE>
 <LOW_LIMIT/>
 <HIGH_LIMIT/>
 <UNIT/>
 <NON_NUMERIC_VALUE/>
 </AMOUNT>
 </MOLECULAR_WEIGHT>
 <COMMENTS/>
 <PUBLIC_DOMAIN/>
 </PROTEIN>

> <COMMENTS>
FDA_ID: F011344

> <CDBREGNO>
90788

> <STRUCTURE_ID>
54219

$$$$
