> <SUBSTANCE_ID>
11326

> <UNII>
0BBBBBBBBB

> <DESC_PART1>
<PROTEIN>
 <SEQUENCE_TYPE>COMPLETE</SEQUENCE_TYPE>
 <NUMBER_OF_SUBUNITS>1</NUMBER_OF_SUBUNITS>
<SUBUNIT_GROUP>
 <SUBUNIT>1</SUBUNIT>
 <LENGTH>11</LENGTH>
 <SEQUENCE>RPKPQQFFGLM</SEQUENCE>
 </SUBUNIT_GROUP>
 <DISULFIDE_LINKAGE/>
<OTHER_LINKAGE>
 <SITE/>
 <LINKAGE_TYPE/>
 </OTHER_LINKAGE>
 <GLYCOSYLATION/>
<MODIFICATION_GROUP>
<STRUCTURAL_MODIFICATION_GROUP>
 <RESIDUE_MODIFIED/>
 <RESIDUE_SITE>1_1</RESIDUE_SITE>
 <NUMBER_OF_FRAGMENTS_MOIETIES>1</NUMBER_OF_FRAGMENTS_MOIETIES>
 <AMOUNT_TYPE/>
<MOLECULAR_FRAGMENT_MOIETY>
 <STRUCTURAL_MODIFICATION_TYPE>AMINO ACID SUBSTITUTION</STRUCTURAL_MODIFICATION_TYPE>
 <ROLE/>
 <FRAGMENT_NUMBER>1</FRAGMENT_NUMBER>
 <MOLECULAR_FRAGMENT_NAME>ARGININE</MOLECULAR_FRAGMENT_NAME>
 <MOLECULAR_FRAGMENT_ID>94ZLA3W45F</MOLECULAR_FRAGMENT_ID>
 <MOLECULAR_FRAGMENT_INCHI/>
 <FRAGMENT_CONNECTIVITY>0;2</FRAGMENT_CONNECTIVITY>
 <MOLFILE><![CDATA[C6H14N4O2
YUtclcactv06271517022D 0   0.00000     0.00000     1
 
 12 11  0  0  1  0  0  0  0  0999 V2000
    2.3000   -3.8792    0.0000 C   0  0  0  0  0  0  0  0  0  0  0  0
    9.2167   -3.8917    0.0000 C   0  0  0  0  0  0  0  0  0  0  0  0
    2.2792   -2.5500    0.0000 N   0  0  0  0  0  0  0  0  0  0  0  0
    9.2167   -2.5750    0.0000 O   0  0  0  0  0  0  0  0  0  0  0  0
    3.4292   -4.5667    0.0000 N   0  0  0  0  0  0  0  0  0  0  0  0
    8.0625   -4.5667    0.0000 C   0  0  0  0  0  0  0  0  0  0  0  0
    1.1375   -4.5500    0.0000 N   0  0  0  0  0  0  0  0  0  0  0  0
   10.3542   -4.5417    0.0000 O   0  0  0  0  0  0  0  0  0  0  0  0
    8.0625   -5.8875    0.0000 N   0  0  0  0  0  0  0  0  0  0  0  0
    4.5917   -3.8917    0.0000 C   0  0  0  0  0  0  0  0  0  0  0  0
    6.8917   -3.8792    0.0000 C   0  0  0  0  0  0  0  0  0  0  0  0
    5.7125   -4.5500    0.0000 C   0  0  0  0  0  0  0  0  0  0  0  0
  2  6  1  0  0  0  0
  1  3  2  0  0  0  0
  2  4  2  0  0  0  0
  1  5  1  0  0  0  0
  6 11  1  0  0  0  0
  1  7  1  0  0  0  0
  2  8  1  0  0  0  0
  6  9  1  1  0  0  0
  5 10  1  0  0  0  0
 11 12  1  0  0  0  0
 10 12  1  0  0  0  0
M  END
]]></MOLFILE>
 <AMOUNT/>
 </MOLECULAR_FRAGMENT_MOIETY>
 </STRUCTURAL_MODIFICATION_GROUP>
<STRUCTURAL_MODIFICATION_GROUP>
 <RESIDUE_MODIFIED/>
 <RESIDUE_SITE>1_11</RESIDUE_SITE>
 <NUMBER_OF_FRAGMENTS_MOIETIES>1</NUMBER_OF_FRAGMENTS_MOIETIES>
 <AMOUNT_TYPE/>
<MOLECULAR_FRAGMENT_MOIETY>
 <STRUCTURAL_MODIFICATION_TYPE>AMINO ACID SUBSTITUTION</STRUCTURAL_MODIFICATION_TYPE>
 <ROLE/>
 <FRAGMENT_NUMBER>1</FRAGMENT_NUMBER>
 <MOLECULAR_FRAGMENT_NAME>L-METHIONINE AMIDE</MOLECULAR_FRAGMENT_NAME>
 <MOLECULAR_FRAGMENT_ID>QSM06A70MD</MOLECULAR_FRAGMENT_ID>
 <MOLECULAR_FRAGMENT_INCHI/>
 <FRAGMENT_CONNECTIVITY>4;0</FRAGMENT_CONNECTIVITY>
 <MOLFILE><![CDATA[C5H12N2OS
YUtclcactv06271517022D 0   0.00000     0.00000     1
 
  9  8  0  0  1  0  0  0  0  0999 V2000
    6.6280   -2.7320    0.0000 C   0  0  0  0  0  0  0  0  0  0  0  0
    6.6280   -1.9820    0.0000 O   0  0  0  0  0  0  0  0  0  0  0  0
    5.9822   -3.1070    0.0000 C   0  0  0  0  0  0  0  0  0  0  0  0
    5.3322   -2.7362    0.0000 N   0  0  0  0  0  0  0  0  0  0  0  0
    5.9822   -3.8612    0.0000 C   0  0  0  0  0  0  0  0  0  0  0  0
    5.3239   -4.2279    0.0000 C   0  0  0  0  0  0  0  0  0  0  0  0
    4.6739   -3.8529    0.0000 S   0  0  0  0  0  0  0  0  0  0  0  0
    4.0156   -4.2279    0.0000 C   0  0  0  0  0  0  0  0  0  0  0  0
    7.2780   -3.1029    0.0000 N   0  0  0  0  0  0  0  0  0  0  0  0
  1  2  2  0  0  0  0
  1  3  1  0  0  0  0
  3  4  1  0  0  0  0
  3  5  1  6  0  0  0
  5  6  1  0  0  0  0
  6  7  1  0  0  0  0
  7  8  1  0  0  0  0
  1  9  1  0  0  0  0
M  END
]]></MOLFILE>
<AMOUNT>
 <AVERAGE/>
 <LOW_LIMIT/>
 <HIGH_LIMIT/>
 <UNIT/>
 <NON_NUMERIC_VALUE/>
 </AMOUNT>
 </MOLECULAR_FRAGMENT_MOIETY>
 </STRUCTURAL_MODIFICATION_GROUP>
 </MODIFICATION_GROUP>
<PROPERTY_GROUP>
 <PROPERTY_TYPE/>
 <PROPERTY/>
<PROPERTY_DESCRIPTION>
 <SUBSTANCE_NAME/>
 <AMOUNT_TYPE/>
<AMOUNT>
 <AVERAGE/>
 <LOW_LIMIT/>
 <HIGH_LIMIT/>
 <UNIT/>
 <NON_NUMERIC_VALUE/>
 </AMOUNT>
 </PROPERTY_DESCRIPTION>
 </PROPERTY_GROUP>
<MOLECULAR_WEIGHT>
 <MOLECULAR_WEIGHT_TYPE>NUMBER AVERAGE</MOLECULAR_WEIGHT_TYPE>
 <MOLECULAR_WEIGHT_METHOD>CALCULATED</MOLECULAR_WEIGHT_METHOD>
<AMOUNT>
 <AVERAGE>1348</AVERAGE>
 <LOW_LIMIT/>
 <HIGH_LIMIT/>
 <UNIT/>
 <NON_NUMERIC_VALUE/>
 </AMOUNT>
 </MOLECULAR_WEIGHT>
 <COMMENTS/>
 <PUBLIC_DOMAIN/>
 </PROTEIN>

> <COMMENTS>
FDA_ID: F011344

> <CDBREGNO>
90788

> <STRUCTURE_ID>
54219

$$$$
> <SUBSTANCE_ID>
11326

> <UNII>
1BBBBBBBBB

> <DESC_PART1>
<PROTEIN>
 <SEQUENCE_TYPE>COMPLETE</SEQUENCE_TYPE>
 <NUMBER_OF_SUBUNITS>1</NUMBER_OF_SUBUNITS>
<SUBUNIT_GROUP>
 <SUBUNIT>1</SUBUNIT>
 <LENGTH>11</LENGTH>
 <SEQUENCE>MLGFFQQPKPR</SEQUENCE>
 </SUBUNIT_GROUP>
 <DISULFIDE_LINKAGE/>
<OTHER_LINKAGE>
 <SITE/>
 <LINKAGE_TYPE/>
 </OTHER_LINKAGE>
 <GLYCOSYLATION/>
<MODIFICATION_GROUP>
<STRUCTURAL_MODIFICATION_GROUP>
 <RESIDUE_MODIFIED/>
 <RESIDUE_SITE>1_11</RESIDUE_SITE>
 <NUMBER_OF_FRAGMENTS_MOIETIES>1</NUMBER_OF_FRAGMENTS_MOIETIES>
 <AMOUNT_TYPE/>
<MOLECULAR_FRAGMENT_MOIETY>
 <STRUCTURAL_MODIFICATION_TYPE>AMINO ACID SUBSTITUTION</STRUCTURAL_MODIFICATION_TYPE>
 <ROLE/>
 <FRAGMENT_NUMBER>1</FRAGMENT_NUMBER>
 <MOLECULAR_FRAGMENT_NAME>ARGININE</MOLECULAR_FRAGMENT_NAME>
 <MOLECULAR_FRAGMENT_ID>94ZLA3W45F</MOLECULAR_FRAGMENT_ID>
 <MOLECULAR_FRAGMENT_INCHI/>
 <FRAGMENT_CONNECTIVITY>0;2</FRAGMENT_CONNECTIVITY>
 <MOLFILE><![CDATA[C6H14N4O2
YUtclcactv06271517022D 0   0.00000     0.00000     1
 
 12 11  0  0  1  0  0  0  0  0999 V2000
    2.3000   -3.8792    0.0000 C   0  0  0  0  0  0  0  0  0  0  0  0
    9.2167   -3.8917    0.0000 C   0  0  0  0  0  0  0  0  0  0  0  0
    2.2792   -2.5500    0.0000 N   0  0  0  0  0  0  0  0  0  0  0  0
    9.2167   -2.5750    0.0000 O   0  0  0  0  0  0  0  0  0  0  0  0
    3.4292   -4.5667    0.0000 N   0  0  0  0  0  0  0  0  0  0  0  0
    8.0625   -4.5667    0.0000 C   0  0  0  0  0  0  0  0  0  0  0  0
    1.1375   -4.5500    0.0000 N   0  0  0  0  0  0  0  0  0  0  0  0
   10.3542   -4.5417    0.0000 O   0  0  0  0  0  0  0  0  0  0  0  0
    8.0625   -5.8875    0.0000 N   0  0  0  0  0  0  0  0  0  0  0  0
    4.5917   -3.8917    0.0000 C   0  0  0  0  0  0  0  0  0  0  0  0
    6.8917   -3.8792    0.0000 C   0  0  0  0  0  0  0  0  0  0  0  0
    5.7125   -4.5500    0.0000 C   0  0  0  0  0  0  0  0  0  0  0  0
  2  6  1  0  0  0  0
  1  3  2  0  0  0  0
  2  4  2  0  0  0  0
  1  5  1  0  0  0  0
  6 11  1  0  0  0  0
  1  7  1  0  0  0  0
  2  8  1  0  0  0  0
  6  9  1  1  0  0  0
  5 10  1  0  0  0  0
 11 12  1  0  0  0  0
 10 12  1  0  0  0  0
M  END
]]></MOLFILE>
 <AMOUNT/>
 </MOLECULAR_FRAGMENT_MOIETY>
 </STRUCTURAL_MODIFICATION_GROUP>
<STRUCTURAL_MODIFICATION_GROUP>
 <RESIDUE_MODIFIED/>
 <RESIDUE_SITE>1_1</RESIDUE_SITE>
 <NUMBER_OF_FRAGMENTS_MOIETIES>1</NUMBER_OF_FRAGMENTS_MOIETIES>
 <AMOUNT_TYPE/>
<MOLECULAR_FRAGMENT_MOIETY>
 <STRUCTURAL_MODIFICATION_TYPE>AMINO ACID SUBSTITUTION</STRUCTURAL_MODIFICATION_TYPE>
 <ROLE/>
 <FRAGMENT_NUMBER>1</FRAGMENT_NUMBER>
 <MOLECULAR_FRAGMENT_NAME>L-METHIONINE AMIDE</MOLECULAR_FRAGMENT_NAME>
 <MOLECULAR_FRAGMENT_ID>QSM06A70MD</MOLECULAR_FRAGMENT_ID>
 <MOLECULAR_FRAGMENT_INCHI/>
 <FRAGMENT_CONNECTIVITY>4;0</FRAGMENT_CONNECTIVITY>
 <MOLFILE><![CDATA[C5H12N2OS
YUtclcactv06271517022D 0   0.00000     0.00000     1
 
  9  8  0  0  1  0  0  0  0  0999 V2000
    6.6280   -2.7320    0.0000 C   0  0  0  0  0  0  0  0  0  0  0  0
    6.6280   -1.9820    0.0000 O   0  0  0  0  0  0  0  0  0  0  0  0
    5.9822   -3.1070    0.0000 C   0  0  0  0  0  0  0  0  0  0  0  0
    5.3322   -2.7362    0.0000 N   0  0  0  0  0  0  0  0  0  0  0  0
    5.9822   -3.8612    0.0000 C   0  0  0  0  0  0  0  0  0  0  0  0
    5.3239   -4.2279    0.0000 C   0  0  0  0  0  0  0  0  0  0  0  0
    4.6739   -3.8529    0.0000 S   0  0  0  0  0  0  0  0  0  0  0  0
    4.0156   -4.2279    0.0000 C   0  0  0  0  0  0  0  0  0  0  0  0
    7.2780   -3.1029    0.0000 N   0  0  0  0  0  0  0  0  0  0  0  0
  1  2  2  0  0  0  0
  1  3  1  0  0  0  0
  3  4  1  0  0  0  0
  3  5  1  6  0  0  0
  5  6  1  0  0  0  0
  6  7  1  0  0  0  0
  7  8  1  0  0  0  0
  1  9  1  0  0  0  0
M  END
]]></MOLFILE>
<AMOUNT>
 <AVERAGE/>
 <LOW_LIMIT/>
 <HIGH_LIMIT/>
 <UNIT/>
 <NON_NUMERIC_VALUE/>
 </AMOUNT>
 </MOLECULAR_FRAGMENT_MOIETY>
 </STRUCTURAL_MODIFICATION_GROUP>
 </MODIFICATION_GROUP>
<PROPERTY_GROUP>
 <PROPERTY_TYPE/>
 <PROPERTY/>
<PROPERTY_DESCRIPTION>
 <SUBSTANCE_NAME/>
 <AMOUNT_TYPE/>
<AMOUNT>
 <AVERAGE/>
 <LOW_LIMIT/>
 <HIGH_LIMIT/>
 <UNIT/>
 <NON_NUMERIC_VALUE/>
 </AMOUNT>
 </PROPERTY_DESCRIPTION>
 </PROPERTY_GROUP>
<MOLECULAR_WEIGHT>
 <MOLECULAR_WEIGHT_TYPE>NUMBER AVERAGE</MOLECULAR_WEIGHT_TYPE>
 <MOLECULAR_WEIGHT_METHOD>CALCULATED</MOLECULAR_WEIGHT_METHOD>
<AMOUNT>
 <AVERAGE>1348</AVERAGE>
 <LOW_LIMIT/>
 <HIGH_LIMIT/>
 <UNIT/>
 <NON_NUMERIC_VALUE/>
 </AMOUNT>
 </MOLECULAR_WEIGHT>
 <COMMENTS/>
 <PUBLIC_DOMAIN/>
 </PROTEIN>

> <COMMENTS>
FDA_ID: F011344

> <CDBREGNO>
90788

> <STRUCTURE_ID>
54219

$$$$
