
  Symyx   10171611572D 1   1.00000     0.00000     0

  0  0  0     0  0            999 V3000
M  V30 BEGIN CTAB
M  V30 COUNTS 89 97 0 0 0
M  V30 BEGIN ATOM
M  V30 1 N 2.9 -5.125 0 0
M  V30 2 C 3.9229 -5.7156 0 0 CFG=2
M  V30 3 C 4.9457 -5.125 0 0
M  V30 4 O 5.9686 -5.7156 0 0
M  V30 5 O 4.9457 -3.9439 0 0
M  V30 6 C 3.9229 -6.8967 0 0
M  V30 7 S 4.9457 -7.4872 0 0
M  V30 8 C 4.9457 -8.6683 0 0 CFG=2
M  V30 9 C 5.9686 -9.2588 0 0
M  V30 10 C 4.0806 -9.4628 0 0
M  V30 11 C 5.7032 -10.4347 0 0
M  V30 12 N 4.556 -10.5504 0 0 CFG=3
M  V30 13 O 2.9398 -9.1571 0 0
M  V30 14 O 6.5383 -11.2698 0 0
M  V30 15 C 3.9655 -11.5733 0 0
M  V30 16 C 4.556 -12.5962 0 0
M  V30 17 C 3.9655 -13.619 0 0
M  V30 18 C 4.556 -14.6419 0 0
M  V30 19 C 3.9655 -15.6648 0 0
M  V30 20 C 4.556 -16.6876 0 0
M  V30 21 O 3.9655 -17.7105 0 0
M  V30 22 N 5.7371 -16.6876 0 0
M  V30 23 C 6.76 -16.0971 0 0 CFG=2
M  V30 24 C 7.7828 -16.6876 0 0
M  V30 25 N 9.0307 -16.6721 0 0
M  V30 26 C 10.0536 -16.0815 0 0 CFG=2
M  V30 27 C 11.0764 -16.6721 0 0
M  V30 28 C 6.76 -14.916 0 0 CFG=3
M  V30 29 C 5.7371 -14.3254 0 0
M  V30 30 C 7.7828 -14.3254 0 0
M  V30 31 O 7.4772 -17.8285 0 0
M  V30 32 N 12.0993 -16.0815 0 0
M  V30 33 O 11.0764 -17.8532 0 0
M  V30 34 C 10.0536 -14.9004 0 0
M  V30 35 C 12.9041 -14.9222 0 0
M  V30 36 C 13.0145 -12.8828 0 0
M  V30 37 C 12.3702 -13.8685 0 0
M  V30 38 C 14.1942 -12.947 0 0
M  V30 39 C 14.0885 -14.9866 0 0
M  V30 40 C 14.7277 -13.9942 0 0
M  V30 41 C 14.8394 -11.9578 0 0
M  V30 42 C 14.3053 -10.9044 0 0
M  V30 43 C 15.998 -11.7649 0 0
M  V30 44 C 15.17 -10.0645 0 0 CFG=2
M  V30 45 N 16.1941 -10.5942 0 0 CFG=3
M  V30 46 C 14.9394 -8.9346 0 0
M  V30 47 N 15.6745 -8.0501 0 0
M  V30 48 C 17.2536 -10.1132 0 0
M  V30 49 C 16.8356 -8.0728 0 0
M  V30 50 C 17.5348 -8.9909 0 0
M  V30 51 O 18.0888 -10.9484 0 0
M  V30 52 C 17.2804 -7.0119 0 0
M  V30 53 C 18.4253 -6.865 0 0
M  V30 54 C 18.6842 -8.8435 0 0
M  V30 55 C 19.123 -7.7769 0 0
M  V30 56 H 14.0871 -9.5772 0 0
M  V30 57 O 20.2638 -7.4712 0 0
M  V30 58 O 19.0158 -5.8422 0 0
M  V30 59 C 20.5695 -6.3304 0 0
M  V30 60 O 18.4253 -4.8193 0 0
M  V30 61 C 20.1623 -5.5867 0 0
M  V30 62 C 19.2431 -3.9337 0 0
M  V30 63 C 20.2944 -4.407 0 0
M  V30 64 C 17.2732 -4.5593 0 0
M  V30 65 C 15.3232 -5.1665 0 0
M  V30 66 C 16.4716 -5.4269 0 0
M  V30 67 C 14.9723 -4.0384 0 0
M  V30 68 C 16.9208 -3.4267 0 0
M  V30 69 C 15.7679 -3.1734 0 0
M  V30 70 N 14.6653 -6.1481 0 0
M  V30 71 C 13.4912 -6.2489 0 0
M  V30 72 C 13.8587 -3.6121 0 0
M  V30 73 C 12.6718 -5.3858 0 0 CFG=1
M  V30 74 N 12.8379 -4.215 0 0 CFG=3
M  V30 75 C 11.7766 -3.7086 0 0
M  V30 76 C 11.4805 -5.5789 0 0
M  V30 77 C 10.9441 -4.5567 0 0
M  V30 78 O 13.8587 -2.431 0 0
M  V30 79 H 12.3219 -6.3263 0 0
M  V30 80 O 17.756 -2.5915 0 0
M  V30 81 C 17.4503 -1.4506 0 0
M  V30 82 C 9.8033 -4.251 0 0
M  V30 83 C 7.8307 -4.7801 0 0
M  V30 84 C 8.9678 -5.086 0 0
M  V30 85 C 7.5249 -3.6389 0 0
M  V30 86 C 9.4963 -3.1052 0 0
M  V30 87 C 8.3543 -2.8063 0 0
M  V30 88 O 6.384 -3.3332 0 0
M  V30 89 C 6.0239 -2.1184 0 0
M  V30 END ATOM
M  V30 BEGIN BOND
M  V30 1 1 1 2
M  V30 2 1 2 3
M  V30 3 1 3 4
M  V30 4 2 3 5
M  V30 5 1 2 6 CFG=3
M  V30 6 1 6 7
M  V30 7 1 8 7 CFG=3
M  V30 8 1 11 12
M  V30 9 1 10 12
M  V30 10 1 9 11
M  V30 11 1 9 8
M  V30 12 1 8 10
M  V30 13 2 10 13
M  V30 14 2 11 14
M  V30 15 1 12 15
M  V30 16 1 15 16
M  V30 17 1 16 17
M  V30 18 1 17 18
M  V30 19 1 18 19
M  V30 20 1 19 20
M  V30 21 2 20 21
M  V30 22 1 20 22
M  V30 23 1 22 23
M  V30 24 1 23 24
M  V30 25 1 24 25
M  V30 26 1 25 26
M  V30 27 1 26 27
M  V30 28 1 23 28 CFG=1
M  V30 29 1 28 29
M  V30 30 1 28 30
M  V30 31 2 24 31
M  V30 32 1 27 32
M  V30 33 2 27 33
M  V30 34 1 26 34 CFG=1
M  V30 35 1 32 35
M  V30 36 1 40 38
M  V30 37 2 39 40
M  V30 38 1 36 37
M  V30 39 2 38 36
M  V30 40 2 37 35
M  V30 41 1 35 39
M  V30 42 1 38 41
M  V30 43 1 44 45
M  V30 44 1 43 45
M  V30 45 1 42 44
M  V30 46 1 42 41
M  V30 47 2 41 43
M  V30 48 2 49 50
M  V30 49 1 48 50
M  V30 50 1 47 49
M  V30 51 2 46 47
M  V30 52 1 45 48
M  V30 53 1 44 46
M  V30 54 2 48 51
M  V30 55 1 55 53
M  V30 56 2 54 55
M  V30 57 2 53 52
M  V30 58 1 50 54
M  V30 59 1 49 52
M  V30 60 1 44 56 CFG=3
M  V30 61 1 55 57
M  V30 62 1 53 58
M  V30 63 1 57 59
M  V30 64 1 62 63
M  V30 65 1 61 63
M  V30 66 1 60 62
M  V30 67 1 58 61
M  V30 68 1 60 64
M  V30 69 1 69 67
M  V30 70 2 68 69
M  V30 71 1 65 66
M  V30 72 2 67 65
M  V30 73 2 66 64
M  V30 74 1 64 68
M  V30 75 1 73 74
M  V30 76 1 72 74
M  V30 77 1 71 73
M  V30 78 2 70 71
M  V30 79 1 67 72
M  V30 80 1 65 70
M  V30 81 1 76 77
M  V30 82 2 75 77
M  V30 83 1 74 75
M  V30 84 1 73 76
M  V30 85 2 72 78
M  V30 86 1 73 79 CFG=1
M  V30 87 1 68 80
M  V30 88 1 80 81
M  V30 89 1 77 82
M  V30 90 1 87 85
M  V30 91 2 86 87
M  V30 92 1 83 84
M  V30 93 2 85 83
M  V30 94 2 84 82
M  V30 95 1 82 86
M  V30 96 1 85 88
M  V30 97 1 88 89
M  V30 END BOND
M  V30 BEGIN COLLECTION
M  V30 MDLV30/STEABS ATOMS=(5 2 23 26 44 73)
M  V30 MDLV30/STERAC1 ATOMS=(1 8)
M  V30 END COLLECTION
M  V30 END CTAB
M  END
>  <SUBSTANCE_ID>
202967

>  <UNII>
T13V17U431

>  <DESC_PART1>
<PROTEIN>
 <SEQUENCE_TYPE>COMPLETE</SEQUENCE_TYPE>
 <NUMBER_OF_SUBUNITS>4</NUMBER_OF_SUBUNITS>
<SUBUNIT_GROUP>
 <SUBUNIT>1</SUBUNIT>
 <LENGTH>447</LENGTH>
 <SEQUENCE>QVQLVQSGAEVKKPGASVKVSCKASGYTFTNYDINWVRQAPGQGLEWIGWIYPGDGSTKYNEKFKAKATLTADTSTSTAYMELRSLRSDDTAVYYCASGYEDAMDYWGQGTTVTVSSASTKGPSVFPLAPSSKSTSGGTAALGCLVKDYFPEPVTVSWNSGALTSGVHTFPAVLQSSGLYSLSSVVTVPSSSLGTQTYICNVNHKPSNTKVDKKVEPKSCDKTHTCPPCPAPELLGGPCVFLFPPKPKDTLMISRTPEVTCVVVDVSHEDPEVKFNWYVDGVEVHNAKTKPREEQYNSTYRVVSVLTVLHQDWLNGKEYKCKVSNKALPAPIEKTISKAKGQPREPQVYTLPPSRDELTKNQVSLTCLVKGFYPSDIAVEWESNGQPENNYKTTPPVLDSDGSFFLYSKLTVDKSRWQQGNVFSCSVMHEALHNHYTQKSLSLSPGK</SEQUENCE>
 </SUBUNIT_GROUP>
<SUBUNIT_GROUP>
 <SUBUNIT>2</SUBUNIT>
 <LENGTH>447</LENGTH>
 <SEQUENCE>QVQLVQSGAEVKKPGASVKVSCKASGYTFTNYDINWVRQAPGQGLEWIGWIYPGDGSTKYNEKFKAKATLTADTSTSTAYMELRSLRSDDTAVYYCASGYEDAMDYWGQGTTVTVSSASTKGPSVFPLAPSSKSTSGGTAALGCLVKDYFPEPVTVSWNSGALTSGVHTFPAVLQSSGLYSLSSVVTVPSSSLGTQTYICNVNHKPSNTKVDKKVEPKSCDKTHTCPPCPAPELLGGPCVFLFPPKPKDTLMISRTPEVTCVVVDVSHEDPEVKFNWYVDGVEVHNAKTKPREEQYNSTYRVVSVLTVLHQDWLNGKEYKCKVSNKALPAPIEKTISKAKGQPREPQVYTLPPSRDELTKNQVSLTCLVKGFYPSDIAVEWESNGQPENNYKTTPPVLDSDGSFFLYSKLTVDKSRWQQGNVFSCSVMHEALHNHYTQKSLSLSPGK</SEQUENCE>
 </SUBUNIT_GROUP>
<SUBUNIT_GROUP>
 <SUBUNIT>3</SUBUNIT>
 <LENGTH>214</LENGTH>
 <SEQUENCE>DIQMTQSPSSLSASVGDRVTINCKASQDINSYLSWFQQKPGKAPKTLIYRANRLVDGVPSRFSGSGSGQDYTLTISSLQPEDFATYYCLQYDEFPLTFGGGTKVEIKRTVAAPSVFIFPPSDEQLKSGTASVVCLLNNFYPREAKVQWKVDNALQSGNSQESVTEQDSKDSTYSLSSTLTLSKADYEKHKVYACEVTHQGLSSPVTKSFNRGEC</SEQUENCE>
 </SUBUNIT_GROUP>
<SUBUNIT_GROUP>
 <SUBUNIT>4</SUBUNIT>
 <LENGTH>214</LENGTH>
 <SEQUENCE>DIQMTQSPSSLSASVGDRVTINCKASQDINSYLSWFQQKPGKAPKTLIYRANRLVDGVPSRFSGSGSGQDYTLTISSLQPEDFATYYCLQYDEFPLTFGGGTKVEIKRTVAAPSVFIFPPSDEQLKSGTASVVCLLNNFYPREAKVQWKVDNALQSGNSQESVTEQDSKDSTYSLSSTLTLSKADYEKHKVYACEVTHQGLSSPVTKSFNRGEC</SEQUENCE>
 </SUBUNIT_GROUP>
 <DISULFIDE_LINKAGE>1_22-1_96; 1_144-1_200; 1_261-1_321; 1_367-1_425; 2_22-2_96; 2_144-2_200; 2_261-2_321; 2_367-2_425; 3_23-3_88; 3_134-3_194; 4_23-4_88; 4_134-4_194; 1_220-3_214; 2_220-4_214; 1_226-2_226; 1_229-2_229</DISULFIDE_LINKAGE>
<GLYCOSYLATION>
 <GLYCOSYLATION_TYPE>MAMMALIAN</GLYCOSYLATION_TYPE>
 <N_GLYCOSYLATION>1_297; 2_297</N_GLYCOSYLATION>
 <O_GLYCOSYLATION/>
 <C_GLYCOSYLATION/>
 </GLYCOSYLATION>
<MODIFICATION_GROUP>
<PHYSICAL_MODIFICATION_GROUP>
 <ROLE/>
 <NUMBER_OF_PARAMETERS>0</NUMBER_OF_PARAMETERS>
<PARAMETER_GROUP>
 <PARAMETER/>
<AMOUNT>
 <AVERAGE/>
 <LOW_LIMIT/>
 <HIGH_LIMIT/>
 <UNIT/>
 <NON_NUMERIC_VALUE/>
 </AMOUNT>
 </PARAMETER_GROUP>
 </PHYSICAL_MODIFICATION_GROUP>
<AGENT_MODIFICATION_GROUP>
 <AGENT_MODIFICATION_TYPE/>
 <ROLE/>
 <MODIFICATION_AGENT/>
 <MODIFICATION_AGENT_ID/>
 <MODIFICATION_PROCESS/>
 <AMOUNT_TYPE/>
<AMOUNT>
 <AVERAGE/>
 <LOW_LIMIT/>
 <HIGH_LIMIT/>
 <UNIT/>
 <NON_NUMERIC_VALUE/>
 </AMOUNT>
 </AGENT_MODIFICATION_GROUP>
<STRUCTURAL_MODIFICATION_GROUP>
 <RESIDUE_MODIFIED>C</RESIDUE_MODIFIED>
 <RESIDUE_SITE>1_239; 2_239</RESIDUE_SITE>
 <NUMBER_OF_FRAGMENTS_MOIETIES/>
 <AMOUNT_TYPE/>
<MOLECULAR_FRAGMENT_MOIETY>
 <STRUCTURAL_MODIFICATION_TYPE/>
 <ROLE>AMINO ACID SUBSTITUTION</ROLE>
 <FRAGMENT_NUMBER/>
 <MOLECULAR_FRAGMENT_NAME/>
 <MOLECULAR_FRAGMENT_ID/>
 <MOLECULAR_FRAGMENT_INCHI/>
 <MOLFILE external="1"/>
 <FRAGMENT_CONNECTIVTY>1;3</FRAGMENT_CONNECTIVTY>
<AMOUNT>
 <AVERAGE/>
 <LOW_LIMIT/>
 <HIGH_LIMIT/>
 <UNIT/>
 <NON_NUMERIC_VALUE/>
 </AMOUNT>
 </MOLECULAR_FRAGMENT_MOIETY>
 </STRUCTURAL_MODIFICATION_GROUP>
 </MODIFICATION_GROUP>
<PROPERTY_GROUP>
 <PROPERTY_TYPE/>
 <PROPERTY/>
<PROPERTY_DESCRIPTION>
 <SUBSTANCE_NAME/>
 <SUBSTANCE_ID/>
 <SUBSTANCE_ID/>
 <AMOUNT_TYPE/>
<AMOUNT>
 <AVERAGE/>
 <LOW_LIMIT/>
 <HIGH_LIMIT/>
 <UNIT/>
 <NON_NUMERIC_VALUE/>
 </AMOUNT>
 </PROPERTY_DESCRIPTION>
 </PROPERTY_GROUP>
<MOLECULAR_WEIGHT>
 <MOLECULAR_WEIGHT_TYPE/>
 <MOLECULAR_WEIGHT_METHOD/>
<AMOUNT>
 <AVERAGE/>
 <LOW_LIMIT/>
 <HIGH_LIMIT/>
 <UNIT/>
 <NON_NUMERIC_VALUE/>
 </AMOUNT>
 </MOLECULAR_WEIGHT>
 <COMMENTS/>

>  <DESC_PART2>
<PUBLIC_DOMAIN/>
 </PROTEIN>

>  <DESC_PART3>

>  <COMMENTS>

>  <CDBREGNO>
133992

>  <STRUCTURE_ID>
93491

$$$$
