
  Symyx   10171611562D 1   1.00000     0.00000     0

 88 81  0     1  0            999 V2000
    4.4205  -14.9657    0.0000 H   0  0  0  0  0  0           0  0  0
    8.0840  -14.9353    0.0000 O   0  0  0  0  0  0           0  0  0
   12.0767  -15.2418    0.0000 H   0  0  0  0  0  0           0  0  0
   15.7402  -15.2114    0.0000 O   0  0  0  0  0  0           0  0  0
   19.2330   -8.9241    0.0000 H   0  0  0  0  0  0           0  0  0
   22.8965   -8.8937    0.0000 O   0  0  0  0  0  0           0  0  0
   11.4433   -4.2035    0.0000 O   0  0  0  0  0  0           0  0  0
    7.7799   -4.2340    0.0000 H   0  0  0  0  0  0           0  0  0
   18.4433   -4.9535    0.0000 O   0  0  0  0  0  0           0  0  0
   14.7799   -4.9840    0.0000 H   0  0  0  0  0  0           0  0  0
   18.5430  -14.4178    0.0000 H   0  0  0  0  0  0           0  0  0
   22.1075  -14.3999    0.0000 O   0  0  0  0  0  0           0  0  0
   10.5660   -0.5858    0.0000 N   0  0  0  0  0  0           0  0  0
   10.5183   -5.3951    0.0000 O   0  0  0  0  0  0           0  0  0
   10.5183   -4.2099    0.0000 C   0  0  0  0  0  0           0  0  0
    8.6067   -4.2276    0.0000 N   0  0  0  0  0  0           0  0  0
    9.5377   -3.5470    0.0000 C   0  0  1  0  0  0           0  0  0
    9.5377   -2.3586    0.0000 C   0  0  0  0  0  0           0  0  0
   10.5660   -1.7663    0.0000 C   0  0  0  0  0  0           0  0  0
   11.6849   -2.1425    0.0000 C   0  0  0  0  0  0           0  0  0
   11.7044   -0.2325    0.0000 C   0  0  0  0  0  0           0  0  0
   12.3884   -1.1946    0.0000 N   0  5  0  0  0  0           0  0  0
    7.2066  -11.3176    0.0000 N   0  0  0  0  0  0           0  0  0
    7.1590  -16.1269    0.0000 O   0  0  0  0  0  0           0  0  0
    7.1590  -14.9417    0.0000 C   0  0  0  0  0  0           0  0  0
    5.2473  -14.9594    0.0000 N   0  0  0  0  0  0           0  0  0
    6.1783  -14.2788    0.0000 C   0  0  1  0  0  0           0  0  0
    6.1783  -13.0904    0.0000 C   0  0  0  0  0  0           0  0  0
    7.2066  -12.4981    0.0000 C   0  0  0  0  0  0           0  0  0
    8.3255  -12.8743    0.0000 C   0  0  0  0  0  0           0  0  0
    8.3450  -10.9643    0.0000 C   0  0  0  0  0  0           0  0  0
    9.0291  -11.9264    0.0000 N   0  5  0  0  0  0           0  0  0
   14.8629  -11.5936    0.0000 N   0  0  0  0  0  0           0  0  0
   14.8152  -16.4029    0.0000 O   0  0  0  0  0  0           0  0  0
   14.8152  -15.2177    0.0000 C   0  0  0  0  0  0           0  0  0
   12.9035  -15.2354    0.0000 N   0  0  0  0  0  0           0  0  0
   13.8346  -14.5548    0.0000 C   0  0  1  0  0  0           0  0  0
   13.8346  -13.3664    0.0000 C   0  0  0  0  0  0           0  0  0
   14.8629  -12.7741    0.0000 C   0  0  0  0  0  0           0  0  0
   15.9817  -13.1503    0.0000 C   0  0  0  0  0  0           0  0  0
   16.0012  -11.2403    0.0000 C   0  0  0  0  0  0           0  0  0
   16.6853  -12.2024    0.0000 N   0  5  0  0  0  0           0  0  0
   19.3709  -14.4178    0.0000 N   0  0  0  0  0  0           0  0  0
   20.3033  -13.7361    0.0000 C   0  0  2  0  0  0           0  0  0
   21.2854  -15.5870    0.0000 O   0  0  0  0  0  0           0  0  0
   21.2854  -14.3999    0.0000 C   0  0  0  0  0  0           0  0  0
   20.3033  -12.5459    0.0000 C   0  0  0  0  0  0           0  0  0
   21.3254  -11.9466    0.0000 C   0  0  0  0  0  0           0  0  0
   22.3483  -12.5385    0.0000 O   0  0  0  0  0  0           0  0  0
   21.3254  -10.7633    0.0000 O   0  5  0  0  0  0           0  0  0
   22.0191   -5.2759    0.0000 N   0  0  0  0  0  0           0  0  0
   21.9715  -10.0852    0.0000 O   0  0  0  0  0  0           0  0  0
   21.9715   -8.9000    0.0000 C   0  0  0  0  0  0           0  0  0
   20.0598   -8.9177    0.0000 N   0  0  0  0  0  0           0  0  0
   20.9908   -8.2371    0.0000 C   0  0  1  0  0  0           0  0  0
   20.9908   -7.0487    0.0000 C   0  0  0  0  0  0           0  0  0
   22.0191   -6.4564    0.0000 C   0  0  0  0  0  0           0  0  0
   23.1380   -6.8326    0.0000 C   0  0  0  0  0  0           0  0  0
   23.1575   -4.9226    0.0000 C   0  0  0  0  0  0           0  0  0
   23.8416   -5.8847    0.0000 N   0  5  0  0  0  0           0  0  0
   17.5660   -1.3358    0.0000 N   0  0  0  0  0  0           0  0  0
   17.5183   -6.1451    0.0000 O   0  0  0  0  0  0           0  0  0
   17.5183   -4.9599    0.0000 C   0  0  0  0  0  0           0  0  0
   15.6067   -4.9776    0.0000 N   0  0  0  0  0  0           0  0  0
   16.5377   -4.2970    0.0000 C   0  0  1  0  0  0           0  0  0
   16.5377   -3.1086    0.0000 C   0  0  0  0  0  0           0  0  0
   17.5660   -2.5163    0.0000 C   0  0  0  0  0  0           0  0  0
   18.6849   -2.8925    0.0000 C   0  0  0  0  0  0           0  0  0
   18.7044   -0.9825    0.0000 C   0  0  0  0  0  0           0  0  0
   19.3884   -1.9446    0.0000 N   0  5  0  0  0  0           0  0  0
   14.3438   -8.9688    0.0000 Zn  0  2  0  0  0  0           0  0  0
    9.9063   -8.3125    0.0000 Cu  0  2  0  0  0  0           0  0  0
    4.2500  -10.8750    0.0000 O   0  0  0  0  0  0           0  0  0
    2.0598   -7.9646    0.0000 N   0  0  0  0  0  0           0  0  0
    1.2330   -7.9709    0.0000 H   0  0  0  0  0  0           0  0  0
    3.9715   -7.9469    0.0000 C   0  0  0  0  0  0           0  0  0
    4.8965   -7.9405    0.0000 O   0  0  0  0  0  0           0  0  0
    5.8416   -4.9316    0.0000 N   0  5  0  0  0  0           0  0  0
    2.9908   -7.2840    0.0000 C   0  0  2  0  0  0           0  0  0
    3.9715   -9.1321    0.0000 O   0  0  0  0  0  0           0  0  0
    2.9908   -6.0956    0.0000 C   0  0  0  0  0  0           0  0  0
    4.0191   -5.5033    0.0000 C   0  0  0  0  0  0           0  0  0
    4.0191   -4.3228    0.0000 N   0  0  0  0  0  0           0  0  0
    5.1380   -5.8795    0.0000 C   0  0  0  0  0  0           0  0  0
    5.1575   -3.9695    0.0000 C   0  0  0  0  0  0           0  0  0
    7.8125   -6.4688    0.0000 H   0  3  0  0  0  0           0  0  0
   12.7188   -6.0313    0.0000 H   0  3  0  0  0  0           0  0  0
   15.3750   -6.3750    0.0000 H   0  3  0  0  0  0           0  0  0
 26  1  1  0     0  0
 25  2  1  0     0  0
 36  3  1  0     0  0
 35  4  1  0     0  0
 54  5  1  0     0  0
 53  6  1  0     0  0
 15  7  1  0     0  0
 16  8  1  0     0  0
 63  9  1  0     0  0
 64 10  1  0     0  0
 43 11  1  0     0  0
 46 12  1  0     0  0
 16 17  1  0     0  0
 15 14  2  0     0  0
 17 15  1  0     0  0
 17 18  1  1     0  0
 18 19  1  0     0  0
 19 13  1  0     0  0
 20 19  2  0     0  0
 22 20  1  0     0  0
 21 22  1  0     0  0
 13 21  2  0     0  0
 26 27  1  0     0  0
 25 24  2  0     0  0
 27 25  1  0     0  0
 27 28  1  1     0  0
 28 29  1  0     0  0
 29 23  1  0     0  0
 30 29  2  0     0  0
 32 30  1  0     0  0
 31 32  1  0     0  0
 23 31  2  0     0  0
 36 37  1  0     0  0
 35 34  2  0     0  0
 37 35  1  0     0  0
 37 38  1  1     0  0
 38 39  1  0     0  0
 39 33  1  0     0  0
 40 39  2  0     0  0
 42 40  1  0     0  0
 41 42  1  0     0  0
 33 41  2  0     0  0
 46 45  2  0     0  0
 44 46  1  0     0  0
 48 50  1  0     0  0
 48 49  2  0     0  0
 47 48  1  0     0  0
 44 47  1  1     0  0
 43 44  1  0     0  0
 54 55  1  0     0  0
 53 52  2  0     0  0
 55 53  1  0     0  0
 55 56  1  1     0  0
 56 57  1  0     0  0
 57 51  1  0     0  0
 58 57  2  0     0  0
 60 58  1  0     0  0
 59 60  1  0     0  0
 51 59  2  0     0  0
 64 65  1  0     0  0
 63 62  2  0     0  0
 65 63  1  0     0  0
 65 66  1  1     0  0
 66 67  1  0     0  0
 67 61  1  0     0  0
 68 67  2  0     0  0
 70 68  1  0     0  0
 69 70  1  0     0  0
 61 69  2  0     0  0
 74 75  1  0     0  0
 76 77  1  0     0  0
 74 79  1  0     0  0
 76 80  2  0     0  0
 79 76  1  0     0  0
 79 81  1  1     0  0
 81 82  1  0     0  0
 82 83  1  0     0  0
 82 84  2  0     0  0
 78 84  1  0     0  0
 78 85  1  0     0  0
 83 85  2  0     0  0
M  CHG  8  22  -1  32  -1  42  -1  50  -1  60  -1  70  -1  71   2  72   2
M  CHG  4  78  -1  86   1  87   1  88   1
M  END
> <SUBSTANCE_ID>
185249

> <UNII>
ZQP6EKT6WD

> <DESC_PART1>
<PROTEIN>
 <SEQUENCE_TYPE>COMPLETE</SEQUENCE_TYPE>
 <NUMBER_OF_SUBUNITS>2</NUMBER_OF_SUBUNITS>
 <SUBUNIT_GROUP>
 <SUBUNIT>1</SUBUNIT>
 <LENGTH>153</LENGTH>
 <SEQUENCE>VQAVAVLKGDAGVSGVVKFEQASESEPTTVSYEIAGNSPNAERGFHIHEFGDATNGCVSAGPHFNPFKKTHGAPTDEVRHVGDMGNVKTDENGVAKGSFKDSLIKLIGPTSVVGRSVVIHAGQDDLGKGDTEESLKTGNAGPRPACGVIGLTN</SEQUENCE>
 </SUBUNIT_GROUP>
 <SUBUNIT_GROUP>
 <SUBUNIT>2</SUBUNIT>
 <LENGTH>153</LENGTH>
 <SEQUENCE>VQAVAVLKGDAGVSGVVKFEQASESEPTTVSYEIAGNSPNAERGFHIHEFGDATNGCVSAGPHFNPFKKTHGAPTDEVRHVGDMGNVKTDENGVAKGSFKDSLIKLIGPTSVVGRSVVIHAGQDDLGKGDTEESLKTGNAGPRPACGVIGLTN</SEQUENCE>
 </SUBUNIT_GROUP>
 <DISULFIDE_LINKAGE>1_57-1_146; 2_57-2_146;</DISULFIDE_LINKAGE>
 <OTHER_LINKAGE>
 <SITE>1_46-1_48-1_63-1_71-1_80-1_83-1_120; 2_46-2_48-2_63-2_71-2_80-2_83-2_120; </SITE>
 <LINKAGE_TYPE>COORDINATION COMPOUND</LINKAGE_TYPE>
 </OTHER_LINKAGE>
 <GLYCOSYLATION>
 <GLYCOSYLATION_TYPE />
 <N_GLYCOSYLATION />
 <O_GLYCOSYLATION />
 <C_GLYCOSYLATION />
 </GLYCOSYLATION>
 <MODIFICATION_GROUP>
 <STRUCTURAL_MODIFICATION_GROUP>
 <RESIDUE_MODIFIED>SER</RESIDUE_MODIFIED>
 <RESIDUE_SITE>1_25; 1_38; 1_98; 1_116; 2_25; 2_38; 2_98; 2_116</RESIDUE_SITE>
 <NUMBER_OF_FRAGMENTS_MOIETIES />
 <AMOUNT_TYPE />
 <MOLECULAR_FRAGMENT_MOIETY>
 <STRUCTURAL_MODIFICATION_TYPE>Phosphoserine</STRUCTURAL_MODIFICATION_TYPE>
 <ROLE>AMINO ACID SUBSTITUTION</ROLE>
 <FRAGMENT_NUMBER />
 <MOLECULAR_FRAGMENT_NAME />
 <MOLECULAR_FRAGMENT_ID />
 <MOLECULAR_FRAGMENT_INCHI />
 <FRAGMENT_CONNECTIVTY>1; 3</FRAGMENT_CONNECTIVTY>
 <MOLFILE><![CDATA[C3H8NO6P
YUtclcactv10171612032D 0   0.00000     0.00000     1
 
 11 10  0  0  1  0  0  0  0  0999 V2000
    6.0938   -5.0938    0.0000 N   0  0  0  0  0  0  0  0  0  0  0  0
    7.1166   -4.5032    0.0000 C   0  0  0  0  0  0  0  0  0  0  0  0
    8.1395   -5.0938    0.0000 C   0  0  0  0  0  0  0  0  0  0  0  0
    9.1623   -4.5032    0.0000 O   0  0  0  0  0  0  0  0  0  0  0  0
    8.1395   -6.2749    0.0000 O   0  0  0  0  0  0  0  0  0  0  0  0
    7.1166   -3.3221    0.0000 C   0  0  0  0  0  0  0  0  0  0  0  0
    6.0938   -2.7315    0.0000 O   0  0  0  0  0  0  0  0  0  0  0  0
    5.0709   -3.3221    0.0000 P   0  0  0  0  0  0  0  0  0  0  0  0
    4.0480   -2.7315    0.0000 O   0  0  0  0  0  0  0  0  0  0  0  0
    4.3209   -4.1282    0.0000 O   0  0  0  0  0  0  0  0  0  0  0  0
    5.6563   -4.1001    0.0000 O   0  0  0  0  0  0  0  0  0  0  0  0
  1  2  1  0  0  0  0
  2  3  1  0  0  0  0
  3  4  2  0  0  0  0
  3  5  1  0  0  0  0
  2  6  1  1  0  0  0
  6  7  1  0  0  0  0
  7  8  1  0  0  0  0
  8  9  2  0  0  0  0
  8 10  1  0  0  0  0
  8 11  1  0  0  0  0
M  END
]]></MOLFILE>
 <AMOUNT>
 <AVERAGE />
 <LOW_LIMIT />
 <HIGH_LIMIT />
 <UNIT />
 <NON_NUMERIC_VALUE />
 </AMOUNT>
 </MOLECULAR_FRAGMENT_MOIETY>
 </STRUCTURAL_MODIFICATION_GROUP>
 <STRUCTURAL_MODIFICATION_GROUP>
 <RESIDUE_MODIFIED>THR</RESIDUE_MODIFIED>
 <RESIDUE_SITE>1_131; 1_137; 2_131; 2_137</RESIDUE_SITE>
 <NUMBER_OF_FRAGMENTS_MOIETIES />
 <AMOUNT_TYPE />
 <MOLECULAR_FRAGMENT_MOIETY>
 <STRUCTURAL_MODIFICATION_TYPE>Phosphothreonine</STRUCTURAL_MODIFICATION_TYPE>
 <ROLE>AMINO ACID SUBSTITUTION</ROLE>
 <FRAGMENT_NUMBER />
 <MOLECULAR_FRAGMENT_NAME />
 <MOLECULAR_FRAGMENT_ID />
 <MOLECULAR_FRAGMENT_INCHI />
 <FRAGMENT_CONNECTIVTY>9; 6</FRAGMENT_CONNECTIVTY>
 <MOLFILE><![CDATA[C5H12NO6P
YUtclcactv10171612032D 0   0.00000     0.00000     1
 
 13 12  0  0  1  0  0  0  0  0999 V2000
    5.7696   -3.3313    0.0000 O   0  0  0  0  0  0  0  0  0  0  0  0
    6.6286   -4.1418    0.0000 P   0  0  0  0  0  0  0  0  0  0  0  0
    7.6339   -3.5218    0.0000 O   0  0  0  0  0  0  0  0  0  0  0  0
    8.6735   -4.0824    0.0000 C   0  0  0  0  0  0  0  0  0  0  0  0
    8.7078   -5.2630    0.0000 C   0  0  0  0  0  0  0  0  0  0  0  0
    9.7474   -5.8236    0.0000 C   0  0  0  0  0  0  0  0  0  0  0  0
    9.7817   -7.0042    0.0000 O   0  0  0  0  0  0  0  0  0  0  0  0
   10.7527   -5.2036    0.0000 O   0  0  0  0  0  0  0  0  0  0  0  0
    7.7025   -5.8830    0.0000 N   0  0  0  0  0  0  0  0  0  0  0  0
    9.6788   -3.4624    0.0000 C   0  0  0  0  0  0  0  0  0  0  0  0
   10.7184   -4.0230    0.0000 C   0  0  0  0  0  0  0  0  0  0  0  0
    5.4794   -3.8694    0.0000 O   0  0  0  0  0  0  0  0  0  0  0  0
    6.6629   -5.3224    0.0000 O   0  0  0  0  0  0  0  0  0  0  0  0
  1  2  1  0  0  0  0
  2  3  1  0  0  0  0
  4  3  1  6  0  0  0
  4  5  1  0  0  0  0
  5  6  1  1  0  0  0
  6  7  1  0  0  0  0
  6  8  2  0  0  0  0
  5  9  1  0  0  0  0
  4 10  1  0  0  0  0
 10 11  1  0  0  0  0
  2 12  1  0  0  0  0
  2 13  2  0  0  0  0
M  END
]]></MOLFILE>
 <AMOUNT>
 <AVERAGE />
 <LOW_LIMIT />
 <HIGH_LIMIT />
 <UNIT />
 <NON_NUMERIC_VALUE />
 </AMOUNT>
 </MOLECULAR_FRAGMENT_MOIETY>
 </STRUCTURAL_MODIFICATION_GROUP>
 <STRUCTURAL_MODIFICATION_GROUP>
 <RESIDUE_MODIFIED>His</RESIDUE_MODIFIED>
 <RESIDUE_SITE>1_46; 2_46</RESIDUE_SITE>
 <NUMBER_OF_FRAGMENTS_MOIETIES />
 <AMOUNT_TYPE />
 <MOLECULAR_FRAGMENT_MOIETY>
 <STRUCTURAL_MODIFICATION_TYPE></STRUCTURAL_MODIFICATION_TYPE>
 <ROLE>AMINO ACID SUBSTITUTION</ROLE>
 <FRAGMENT_NUMBER></FRAGMENT_NUMBER>
 <MOLECULAR_FRAGMENT_NAME></MOLECULAR_FRAGMENT_NAME>
 <MOLECULAR_FRAGMENT_ID />
 <MOLECULAR_FRAGMENT_INCHI></MOLECULAR_FRAGMENT_INCHI>
 <MOLFILE external="1"></MOLFILE>
 <FRAGMENT_CONNECTIVTY>26; 25</FRAGMENT_CONNECTIVTY>
 <AMOUNT>
 <AVERAGE />
 <LOW_LIMIT />
 <HIGH_LIMIT />
 <UNIT />
 <NON_NUMERIC_VALUE />
 </AMOUNT>
 </MOLECULAR_FRAGMENT_MOIETY>
 </STRUCTURAL_MODIFICATION_GROUP>
 <STRUCTURAL_MODIFICATION_GROUP>
 <RESIDUE_MODIFIED>His</RESIDUE_MODIFIED>
 <RESIDUE_SITE>1_48; 2_48</RESIDUE_SITE>
 <NUMBER_OF_FRAGMENTS_MOIETIES />
 <AMOUNT_TYPE />
 <MOLECULAR_FRAGMENT_MOIETY>
 <STRUCTURAL_MODIFICATION_TYPE></STRUCTURAL_MODIFICATION_TYPE>
 <ROLE>AMINO ACID SUBSTITUTION</ROLE>
 <FRAGMENT_NUMBER></FRAGMENT_NUMBER>
 <MOLECULAR_FRAGMENT_NAME></MOLECULAR_FRAGMENT_NAME>
 <MOLECULAR_FRAGMENT_ID />
 <MOLECULAR_FRAGMENT_INCHI></MOLECULAR_FRAGMENT_INCHI>
 <MOLFILE external="1"></MOLFILE>
 <FRAGMENT_CONNECTIVTY>74; 76</FRAGMENT_CONNECTIVTY>
 <AMOUNT>
 <AVERAGE />
 <LOW_LIMIT />
 <HIGH_LIMIT />
 <UNIT />
 <NON_NUMERIC_VALUE />
 </AMOUNT>
 </MOLECULAR_FRAGMENT_MOIETY>
 </STRUCTURAL_MODIFICATION_GROUP>
 <STRUCTURAL_MODIFICATION_GROUP>
 <RESIDUE_MODIFIED>His</RESIDUE_MODIFIED>
 <RESIDUE_SITE>1_63; 2_63</RESIDUE_SITE>
 <NUMBER_OF_FRAGMENTS_MOIETIES />
 <AMOUNT_TYPE />
 <MOLECULAR_FRAGMENT_MOIETY>
 <STRUCTURAL_MODIFICATION_TYPE></STRUCTURAL_MODIFICATION_TYPE>
 <ROLE>AMINO ACID SUBSTITUTION</ROLE>
 <FRAGMENT_NUMBER></FRAGMENT_NUMBER>
 <MOLECULAR_FRAGMENT_NAME></MOLECULAR_FRAGMENT_NAME>
 <MOLECULAR_FRAGMENT_ID />
 <MOLECULAR_FRAGMENT_INCHI></MOLECULAR_FRAGMENT_INCHI>
 <MOLFILE external="1"></MOLFILE>
 <FRAGMENT_CONNECTIVTY>54; 53</FRAGMENT_CONNECTIVTY>
 <AMOUNT>
 <AVERAGE />
 <LOW_LIMIT />
 <HIGH_LIMIT />
 <UNIT />
 <NON_NUMERIC_VALUE />
 </AMOUNT>
 </MOLECULAR_FRAGMENT_MOIETY>
 </STRUCTURAL_MODIFICATION_GROUP>
 <STRUCTURAL_MODIFICATION_GROUP>
 <RESIDUE_MODIFIED>His</RESIDUE_MODIFIED>
 <RESIDUE_SITE>1_71; 2_71</RESIDUE_SITE>
 <NUMBER_OF_FRAGMENTS_MOIETIES

> <DESC_PART3>
/>
 <AMOUNT_TYPE />
 <MOLECULAR_FRAGMENT_MOIETY>
 <STRUCTURAL_MODIFICATION_TYPE></STRUCTURAL_MODIFICATION_TYPE>
 <ROLE>AMINO ACID SUBSTITUTION</ROLE>
 <FRAGMENT_NUMBER></FRAGMENT_NUMBER>
 <MOLECULAR_FRAGMENT_NAME></MOLECULAR_FRAGMENT_NAME>
 <MOLECULAR_FRAGMENT_ID />
 <MOLECULAR_FRAGMENT_INCHI></MOLECULAR_FRAGMENT_INCHI>
 <MOLFILE external="1"></MOLFILE>
 <FRAGMENT_CONNECTIVTY>16; 15</FRAGMENT_CONNECTIVTY>
 <AMOUNT>
 <AVERAGE />
 <LOW_LIMIT />
 <HIGH_LIMIT />
 <UNIT />
 <NON_NUMERIC_VALUE />
 </AMOUNT>
 </MOLECULAR_FRAGMENT_MOIETY>
 </STRUCTURAL_MODIFICATION_GROUP>
 <STRUCTURAL_MODIFICATION_GROUP>
 <RESIDUE_MODIFIED>His</RESIDUE_MODIFIED>
 <RESIDUE_SITE>1_80; 2_80</RESIDUE_SITE>
 <NUMBER_OF_FRAGMENTS_MOIETIES />
 <AMOUNT_TYPE />
 <MOLECULAR_FRAGMENT_MOIETY>
 <STRUCTURAL_MODIFICATION_TYPE></STRUCTURAL_MODIFICATION_TYPE>
 <ROLE>AMINO ACID SUBSTITUTION</ROLE>
 <FRAGMENT_NUMBER></FRAGMENT_NUMBER>
 <MOLECULAR_FRAGMENT_NAME></MOLECULAR_FRAGMENT_NAME>
 <MOLECULAR_FRAGMENT_ID />
 <MOLECULAR_FRAGMENT_INCHI></MOLECULAR_FRAGMENT_INCHI>
 <MOLFILE external="1"></MOLFILE>
 <FRAGMENT_CONNECTIVTY>64; 63</FRAGMENT_CONNECTIVTY>
 <AMOUNT>
 <AVERAGE />
 <LOW_LIMIT />
 <HIGH_LIMIT />
 <UNIT />
 <NON_NUMERIC_VALUE />
 </AMOUNT>
 </MOLECULAR_FRAGMENT_MOIETY>
 </STRUCTURAL_MODIFICATION_GROUP>
 <STRUCTURAL_MODIFICATION_GROUP>
 <RESIDUE_MODIFIED>Asp</RESIDUE_MODIFIED>
 <RESIDUE_SITE>1_83; 2_83</RESIDUE_SITE>
 <NUMBER_OF_FRAGMENTS_MOIETIES />
 <AMOUNT_TYPE />
 <MOLECULAR_FRAGMENT_MOIETY>
 <STRUCTURAL_MODIFICATION_TYPE></STRUCTURAL_MODIFICATION_TYPE>
 <ROLE>AMINO ACID SUBSTITUTION</ROLE>
 <FRAGMENT_NUMBER></FRAGMENT_NUMBER>
 <MOLECULAR_FRAGMENT_NAME></MOLECULAR_FRAGMENT_NAME>
 <MOLECULAR_FRAGMENT_ID />
 <MOLECULAR_FRAGMENT_INCHI></MOLECULAR_FRAGMENT_INCHI>
 <MOLFILE external="1"></MOLFILE>
 <FRAGMENT_CONNECTIVTY>43; 46</FRAGMENT_CONNECTIVTY>
 <AMOUNT>
 <AVERAGE />
 <LOW_LIMIT />
 <HIGH_LIMIT />
 <UNIT />
 <NON_NUMERIC_VALUE />
 </AMOUNT>
 </MOLECULAR_FRAGMENT_MOIETY>
 </STRUCTURAL_MODIFICATION_GROUP>
 <STRUCTURAL_MODIFICATION_GROUP>
 <RESIDUE_MODIFIED>His</RESIDUE_MODIFIED>
 <RESIDUE_SITE>1_120; 2_120</RESIDUE_SITE>
 <NUMBER_OF_FRAGMENTS_MOIETIES />
 <AMOUNT_TYPE />
 <MOLECULAR_FRAGMENT_MOIETY>
 <STRUCTURAL_MODIFICATION_TYPE></STRUCTURAL_MODIFICATION_TYPE>
 <ROLE>AMINO ACID SUBSTITUTION</ROLE>
 <FRAGMENT_NUMBER></FRAGMENT_NUMBER>
 <MOLECULAR_FRAGMENT_NAME></MOLECULAR_FRAGMENT_NAME>
 <MOLECULAR_FRAGMENT_ID />
 <MOLECULAR_FRAGMENT_INCHI></MOLECULAR_FRAGMENT_INCHI>
 <MOLFILE external="1"></MOLFILE>
 <FRAGMENT_CONNECTIVTY>36; 35</FRAGMENT_CONNECTIVTY>
 <AMOUNT>
 <AVERAGE />
 <LOW_LIMIT />
 <HIGH_LIMIT />
 <UNIT />
 <NON_NUMERIC_VALUE />
 </AMOUNT>
 </MOLECULAR_FRAGMENT_MOIETY>
 </STRUCTURAL_MODIFICATION_GROUP>
 </MODIFICATION_GROUP>
</PROTEIN>

> <COMMENTS>
SUMO conjugation is not described

> <CDBREGNO>
125299

> <STRUCTURE_ID>
84862

$$$$
