
  Symyx   06031522322D 1   1.00000     0.00000     0

  5  4  0     0  0            999 V2000
    0.7958   -5.2125    0.0000 *   0  0  0  0  0  0           0  0  0
    1.8167   -5.8000    0.0000 C   0  0  0  0  0  0           0  0  0
    2.8333   -5.2125    0.0000 C   0  0  0  0  0  0           0  0  0
    3.8542   -5.8000    0.0000 O   0  0  0  0  0  0           0  0  0
    5.1000   -5.2125    0.0000 *   0  0  0  0  0  0           0  0  0
  2  3  1  0     0  0
  1  2  1  0     0  0
  3  4  1  0     0  0
  4  5  1  0     0  0
M  STY  1   1 SRU
M  SLB  1   1   1
M  SCN  1   1 HT
M  SAL   1  3   2   3   4
M  SBL   1  2   2   4
M  SMT   1 A
M  SDI   1  4    1.3800   -5.9100    1.3800   -5.0900
M  SDI   1  4    4.4700   -5.0900    4.4700   -5.9100
M  END
> <SUBSTANCE_ID>
24764

> <UNII>
Q5I7SFZ853

> <DESC_PART1>
<PROTEIN>
 <SEQUENCE_TYPE>COMPLETE</SEQUENCE_TYPE>
 <SUBUNIT_NUMBER>1</SUBUNIT_NUMBER>
 <SUBUNIT_GROUP>
 <SUBUNIT_ID>1</SUBUNIT_ID>
 <LENGTH>106</LENGTH>
 <SEQUENCE>MDSVCPQGKYIHPQNNSICCTKCHKGTYLYNDCPGPGQDTDCRECESGSFTASENHLRHCLSCSKCRKEMGQVEISSCTVDRDTVCGCRKNQYRHYWSENLFQCFN</SEQUENCE>
 </SUBUNIT_GROUP>
 <DISULFIDE_LINKAGE>1_4-1_18;1_19-1_32;1_22-1_41;1_62-1_77;1_64-1_85;1_87-1_103</DISULFIDE_LINKAGE>
 <GLYCOSYLATION>
 <GLYCOSYLATION_TYPE></GLYCOSYLATION_TYPE>
 <N_GLYCOSYLATION></N_GLYCOSYLATION>
 <O_GLYCOSYLATION></O_GLYCOSYLATION>
 </GLYCOSYLATION>
 <MODIFICATION_TYPE>
 <SEQUENCE_SPECIFIC>
 <RESIDUE_MODIFIED />
 <MODIFICATION />
 </SEQUENCE_SPECIFIC>
 <NON_SPECIFIC>
 <PHYSICAL>
 <MODIFICATION />
 <EXTENT />
 </PHYSICAL>
 <CHEMICAL>
 <MODIFICATION />
 <AGENT />
 <AGENT_ID />
 </CHEMICAL>
 </NON_SPECIFIC>
 </MODIFICATION_TYPE>
 <MW_GROUP>
 <MW_TYPE>APPROXIMATE</MW_TYPE>
 <MW_LOW></MW_LOW>
 <MW_HIGH></MW_HIGH>
 <MW_AVERAGE>12111.54
</MW_AVERAGE>
 </MW_GROUP>
 <PROTEIN_TYPE>RECEPTOR<PROTEIN_SUBTYPE></PROTEIN_SUBTYPE></PROTEIN_TYPE>
 <PARENT_ORGANISM>HUMAN</PARENT_ORGANISM>
 <LIGAND></LIGAND>
 <GENE_ID>7132, TUMOR NECROSIS FACTOR RECEPTOR 1</GENE_ID>
</PROTEIN>
<POLYMER>
 <POLYMER_TYPE>HOMOPOLYMER</POLYMER_TYPE>
 <COMPONENT_NUMBER></COMPONENT_NUMBER>
 <COMPONENT_AMOUNT_TYPE></COMPONENT_AMOUNT_TYPE>
 <COMPONENT>
 <COMPONENT_NAME></COMPONENT_NAME>
 <COMPONENT_ID></COMPONENT_ID>
 <AVERAGE></AVERAGE>
 <LOW_LIMIT />
 <HIGH_LIMIT />
 </COMPONENT>
 <SRU_NUMBER>1</SRU_NUMBER>
 <SRU_AMOUNT_TYPE>WEIGHT PERCENT</SRU_AMOUNT_TYPE>
 <SRU_GROUP>
 <SRU_ID></SRU_ID>
 <ORIENTATION_OF_POLYMERIZATION>HEAD-TAIL</ORIENTATION_OF_POLYMERIZATION>
 <SRU_AMOUNT>
 <AVERAGE>100</AVERAGE>
 <LOW_LIMIT />
 <HIGH_LIMIT />
 </SRU_AMOUNT>
 <NUMBER_OF_RGROUPS></NUMBER_OF_RGROUPS>
 <SUBSTITUTION_AMOUNT_TYPE></SUBSTITUTION_AMOUNT_TYPE>
 <R_GROUP>
 <R_ID></R_ID>
 <AVERAGE></AVERAGE>
 <LOW_LIMIT></LOW_LIMIT>
 <HIGH_LIMIT></HIGH_LIMIT>
 </R_GROUP>
 <DEGREE_POLYMERIZATION>
 <AVERAGE></AVERAGE>
 <LOW_LIMIT />
 <HIGH_LIMIT />
 </DEGREE_POLYMERIZATION>
 </SRU_GROUP>
 <MW_GROUP>
 <TYPE_MW>WEIGHT AVERAGE</TYPE_MW>
 <MW_AVERAGE>30000</MW_AVERAGE>
 <LOW_LIMIT_MW />
 <HIGH_LIMIT_MW />
 </MW_GROUP>
 <PROPERTIES_GROUP>
 <PROPERTY></PROPERTY>
 <AVERAGE></AVERAGE>
 <LOW_LIMIT></LOW_LIMIT>
 <HIGH_LIMIT></HIGH_LIMIT>
 <UNITS></UNITS>
 </PROPERTIES_GROUP>
</POLYMER>

> <CDBREGNO>
11821

> <STRUCTURE_ID>
11821

$$$$

  Symyx   06031522322D 1   1.00000     0.00000     0

167186  0     1  0            999 V2000
   14.2003   -5.9883    0.0000 N   0  0  3  0  0  0           0  0  0
   13.5615   -5.6201    0.0000 C   0  0  0  0  0  0           0  0  0
   13.5615   -4.8833    0.0000 O   0  0  0  0  0  0           0  0  0
   12.9268   -5.9883    0.0000 C   0  0  0  0  0  0           0  0  0
   12.9268   -6.7208    0.0000 C   0  0  0  0  0  0           0  0  0
   13.5615   -7.0892    0.0000 C   0  0  0  0  0  0           0  0  0
   14.2003   -6.7208    0.0000 C   0  0  0  0  0  0           0  0  0
   14.8935   -6.9463    0.0000 C   0  0  0  0  0  0           0  0  0
   15.1974   -7.6183    0.0000 N   0  0  0  0  0  0           0  0  0
   15.9273   -7.6967    0.0000 C   0  0  0  0  0  0           0  0  0
   16.3576   -7.1030    0.0000 C   0  0  0  0  0  0           0  0  0
   17.0917   -7.1773    0.0000 C   0  0  0  0  0  0           0  0  0
   17.3872   -7.8494    0.0000 C   0  0  0  0  0  0           0  0  0
   18.1171   -7.9278    0.0000 O   0  0  0  0  0  0           0  0  0
   16.9527   -8.4432    0.0000 C   0  0  0  0  0  0           0  0  0
   16.2269   -8.3648    0.0000 C   0  0  0  0  0  0           0  0  0
   16.0581   -6.4308    0.0000 C   0  0  0  0  0  0           0  0  0
   15.3280   -6.3524    0.0000 C   0  0  0  0  0  0           0  0  0
   14.8935   -5.7587    0.0000 C   0  0  0  0  0  0           0  0  0
   16.4883   -5.8372    0.0000 C   0  0  0  0  0  0           0  0  0
   16.1930   -5.1650    0.0000 C   0  0  0  0  0  0           0  0  0
   12.2923   -7.0892    0.0000 C   0  0  1  0  0  0           0  0  0
   12.7652   -7.6509    0.0000 C   0  0  0  0  0  0           0  0  0
   13.3076   -7.8511    0.0000 C   0  0  0  0  0  0           0  0  0
   11.6535   -6.7208    0.0000 C   0  0  0  0  0  0           0  0  0
   11.6535   -5.9883    0.0000 O   0  0  0  0  0  0           0  0  0
   12.2923   -5.6201    0.0000 C   0  0  0  0  0  0           0  0  0
   11.0189   -7.0892    0.0000 O   0  0  0  0  0  0           0  0  0
   11.8153   -7.6509    0.0000 O   0  0  0  0  0  0           0  0  0
   11.3008   -8.1695    0.0000 C   0  0  0  0  0  0           0  0  0
   11.3008   -8.9062    0.0000 O   0  0  0  0  0  0           0  0  0
   10.5894   -7.9767    0.0000 C   0  0  0  0  0  0           0  0  0
   10.0708   -8.4994    0.0000 N   0  0  0  0  0  0           0  0  0
    9.0864   -8.3419    0.0000 C   0  0  0  0  0  0           0  0  0
    8.8718   -7.5739    0.0000 O   0  0  0  0  0  0           0  0  0
    8.7560   -8.9478    0.0000 C   0  0  0  0  0  0           0  0  0
    7.9650   -9.0753    0.0000 O   0  0  0  0  0  0           0  0  0
    7.3263   -8.7111    0.0000 C   0  0  0  0  0  0           0  0  0
    6.6917   -9.0753    0.0000 C   0  0  0  0  0  0           0  0  0
    6.0529   -8.7111    0.0000 O   0  0  0  0  0  0           0  0  0
    4.8953   -8.8878    0.0000 C   0  0  0  0  0  0           0  0  0
    5.4224   -9.8079    0.0000 C   0  0  3  0  0  0           0  0  0
    4.7878  -10.1762    0.0000 C   0  0  0  0  0  0           0  0  0
    4.1491   -9.8079    0.0000 O   0  0  0  0  0  0           0  0  0
    3.5063   -9.4354    0.0000 C   0  0  0  0  0  0           0  0  0
    2.8633   -9.8079    0.0000 C   0  0  3  0  0  0           0  0  0
    2.2245   -9.4354    0.0000 O   0  0  0  0  0  0           0  0  0
    1.5815   -9.8079    0.0000 C   0  0  0  0  0  0           0  0  0
    0.9386   -9.4354    0.0000 C   0  0  0  0  0  0           0  0  0
    0.2957   -9.8079    0.0000 O   0  0  0  0  0  0           0  0  0
   -0.5061   -9.6978    0.0000 C   0  0  0  0  0  0           0  0  0
   -0.8540   -9.0867    0.0000 C   0  0  0  0  0  0           0  0  0
   -1.8430   -9.2699    0.0000 N   0  0  0  0  0  0           0  0  0
   -2.3812   -8.7545    0.0000 C   0  0  0  0  0  0           0  0  0
   -3.0924   -8.9671    0.0000 C   0  0  0  0  0  0           0  0  0
   -3.6265   -8.4516    0.0000 O   0  0  0  0  0  0           0  0  0
   -4.1199   -7.8920    0.0000 C   0  0  2  0  0  0           0  0  0
   -4.5804   -8.4724    0.0000 C   0  0  0  0  0  0           0  0  0
   -5.1266   -8.6843    0.0000 C   0  0  0  0  0  0           0  0  0
   -3.4809   -7.5098    0.0000 C   0  0  0  0  0  0           0  0  0
   -2.8343   -7.8641    0.0000 O   0  0  0  0  0  0           0  0  0
   -3.4809   -6.7691    0.0000 O   0  0  0  0  0  0           0  0  0
   -4.1520   -6.4107    0.0000 C   0  0  0  0  0  0           0  0  0
   -4.7664   -6.7969    0.0000 C   0  0  0  0  0  0           0  0  0
   -5.4293   -6.4385    0.0000 C   0  0  0  0  0  0           0  0  0
   -5.4293   -5.6860    0.0000 O   0  0  0  0  0  0           0  0  0
   -6.0521   -6.8248    0.0000 N   0  0  3  0  0  0           0  0  0
   -6.7746   -6.6064    0.0000 C   0  0  0  0  0  0           0  0  0
   -7.2002   -7.2178    0.0000 C   0  0  0  0  0  0           0  0  0
   -7.9367   -7.3122    0.0000 C   0  0  0  0  0  0           0  0  0
   -8.3840   -6.7197    0.0000 C   0  0  0  0  0  0           0  0  0
   -8.0993   -6.0371    0.0000 C   0  0  0  0  0  0           0  0  0
   -8.2256   -7.9949    0.0000 C   0  0  0  0  0  0           0  0  0
   -8.9620   -8.0893    0.0000 C   0  0  0  0  0  0           0  0  0
   -9.2469   -8.7719    0.0000 C   0  0  0  0  0  0           0  0  0
   -9.9833   -8.8663    0.0000 O   0  0  0  0  0  0           0  0  0
   -8.7953   -9.3644    0.0000 C   0  0  0  0  0  0           0  0  0
   -8.0631   -9.2701    0.0000 C   0  0  0  0  0  0           0  0  0
   -7.7740   -8.5873    0.0000 C   0  0  0  0  0  0           0  0  0
   -7.0419   -8.4930    0.0000 N   0  0  0  0  0  0           0  0  0
   -6.7485   -7.8103    0.0000 C   0  0  0  0  0  0           0  0  0
   -6.0521   -7.5655    0.0000 C   0  0  0  0  0  0           0  0  0
   -5.3972   -7.9197    0.0000 C   0  0  0  0  0  0           0  0  0
   -4.7664   -7.5376    0.0000 C   0  0  0  0  0  0           0  0  0
   -3.0924   -9.7078    0.0000 O   0  0  0  0  0  0           0  0  0
   -0.6520   -8.3101    0.0000 O   0  0  0  0  0  0           0  0  0
    3.3946  -10.7363    0.0000 C   0  0  0  0  0  0           0  0  0
    2.2245  -10.9172    0.0000 O   0  0  0  0  0  0           0  0  0
    1.5815  -10.5488    0.0000 C   0  0  0  0  0  0           0  0  0
    0.9386  -10.9172    0.0000 C   0  0  0  0  0  0           0  0  0
    0.2957  -10.5488    0.0000 O   0  0  0  0  0  0           0  0  0
   -0.5036  -10.6763    0.0000 C   0  0  0  0  0  0           0  0  0
   -0.8382  -11.2905    0.0000 C   0  0  0  0  0  0           0  0  0
   -0.6194  -12.0627    0.0000 O   0  0  0  0  0  0           0  0  0
   -1.8309  -11.1289    0.0000 N   0  0  0  0  0  0           0  0  0
   -2.3578  -11.6558    0.0000 C   0  0  0  0  0  0           0  0  0
   -3.0734  -11.4629    0.0000 C   0  0  0  0  0  0           0  0  0
   -3.0734  -10.7179    0.0000 O   0  0  0  0  0  0           0  0  0
   -3.5962  -11.9857    0.0000 O   0  0  0  0  0  0           0  0  0
   -4.0774  -12.5558    0.0000 C   0  0  2  0  0  0           0  0  0
   -3.4303  -12.9241    0.0000 C   0  0  0  0  0  0           0  0  0
   -2.7915  -12.5558    0.0000 O   0  0  0  0  0  0           0  0  0
   -3.4303  -13.6650    0.0000 O   0  0  0  0  0  0           0  0  0
   -4.0774  -14.0374    0.0000 C   0  0  0  0  0  0           0  0  0
   -4.7161  -13.6650    0.0000 C   0  0  0  0  0  0           0  0  0
   -4.7161  -12.9241    0.0000 C   0  0  0  0  0  0           0  0  0
   -5.3591  -12.5558    0.0000 C   0  0  0  0  0  0           0  0  0
   -5.9979  -12.9241    0.0000 C   0  0  0  0  0  0           0  0  0
   -6.7036  -12.6987    0.0000 C   0  0  0  0  0  0           0  0  0
   -7.1423  -13.2967    0.0000 C   0  0  0  0  0  0           0  0  0
   -6.7036  -13.8987    0.0000 C   0  0  0  0  0  0           0  0  0
   -5.9979  -13.6650    0.0000 N   0  0  3  0  0  0           0  0  0
   -5.3591  -14.0374    0.0000 C   0  0  0  0  0  0           0  0  0
   -5.3591  -14.7825    0.0000 O   0  0  0  0  0  0           0  0  0
   -7.8807  -13.2183    0.0000 C   0  0  0  0  0  0           0  0  0
   -8.3151  -13.8203    0.0000 C   0  0  0  0  0  0           0  0  0
   -8.0156  -14.4966    0.0000 C   0  0  0  0  0  0           0  0  0
   -8.1844  -12.5419    0.0000 C   0  0  0  0  0  0           0  0  0
   -8.9226  -12.4635    0.0000 C   0  0  0  0  0  0           0  0  0
   -9.2223  -11.7872    0.0000 C   0  0  0  0  0  0           0  0  0
   -8.7836  -11.1851    0.0000 C   0  0  0  0  0  0           0  0  0
   -8.0495  -11.2635    0.0000 C   0  0  0  0  0  0           0  0  0
   -7.7457  -11.9399    0.0000 C   0  0  0  0  0  0           0  0  0
   -7.0117  -12.0183    0.0000 N   0  0  0  0  0  0           0  0  0
   -9.9605  -11.7088    0.0000 O   0  0  0  0  0  0           0  0  0
   -4.5545  -11.9857    0.0000 C   0  0  0  0  0  0           0  0  0
   -5.1010  -11.7855    0.0000 C   0  0  0  0  0  0           0  0  0
    6.0529  -10.1762    0.0000 O   0  0  0  0  0  0           0  0  0
    6.6917   -9.8079    0.0000 C   0  0  0  0  0  0           0  0  0
    7.3263  -10.1762    0.0000 C   0  0  0  0  0  0           0  0  0
    7.9650   -9.8079    0.0000 O   0  0  0  0  0  0           0  0  0
    8.7585   -9.9180    0.0000 C   0  0  0  0  0  0           0  0  0
    9.1022  -10.5208    0.0000 C   0  0  0  0  0  0           0  0  0
    8.9044  -11.2890    0.0000 O   0  0  0  0  0  0           0  0  0
   10.0829  -10.3417    0.0000 N   0  0  0  0  0  0           0  0  0
   10.6128  -10.8488    0.0000 C   0  0  0  0  0  0           0  0  0
   11.3198  -10.6404    0.0000 C   0  0  0  0  0  0           0  0  0
   11.3198   -9.9080    0.0000 O   0  0  0  0  0  0           0  0  0
   11.8456  -11.1517    0.0000 O   0  0  0  0  0  0           0  0  0
   12.3348  -11.7030    0.0000 C   0  0  1  0  0  0           0  0  0
   12.7911  -11.1309    0.0000 C   0  0  0  0  0  0           0  0  0
   13.3332  -10.9190    0.0000 C   0  0  0  0  0  0           0  0  0
   12.9771  -12.0573    0.0000 C   0  0  0  0  0  0           0  0  0
   13.5996  -11.6753    0.0000 C   0  0  0  0  0  0           0  0  0
   14.2503  -12.0295    0.0000 C   0  0  0  0  0  0           0  0  0
   14.2503  -12.7618    0.0000 N   0  0  3  0  0  0           0  0  0
   13.6317  -13.1439    0.0000 C   0  0  0  0  0  0           0  0  0
   13.6317  -13.8881    0.0000 O   0  0  0  0  0  0           0  0  0
   12.9771  -12.7897    0.0000 C   0  0  0  0  0  0           0  0  0
   12.3669  -13.1717    0.0000 C   0  0  0  0  0  0           0  0  0
   11.7041  -12.8175    0.0000 O   0  0  0  0  0  0           0  0  0
   11.7041  -12.0810    0.0000 C   0  0  0  0  0  0           0  0  0
   11.0617  -11.7308    0.0000 O   0  0  0  0  0  0           0  0  0
   14.9645  -12.9761    0.0000 C   0  0  0  0  0  0           0  0  0
   15.3859  -12.3730    0.0000 C   0  0  0  0  0  0           0  0  0
   14.9384  -11.7847    0.0000 C   0  0  0  0  0  0           0  0  0
   15.2276  -11.1103    0.0000 N   0  0  0  0  0  0           0  0  0
   15.9514  -11.0160    0.0000 C   0  0  0  0  0  0           0  0  0
   16.3988  -11.6042    0.0000 C   0  0  0  0  0  0           0  0  0
   17.1311  -11.5098    0.0000 C   0  0  0  0  0  0           0  0  0
   17.4118  -10.8314    0.0000 C   0  0  0  0  0  0           0  0  0
   18.1399  -10.7412    0.0000 O   0  0  0  0  0  0           0  0  0
   16.9644  -10.2472    0.0000 C   0  0  0  0  0  0           0  0  0
   16.2405  -10.3415    0.0000 C   0  0  0  0  0  0           0  0  0
   16.1141  -12.2786    0.0000 C   0  0  0  0  0  0           0  0  0
   16.5572  -12.8669    0.0000 C   0  0  0  0  0  0           0  0  0
   16.2767  -13.5412    0.0000 C   0  0  0  0  0  0           0  0  0
  2  1  1  0     0  0
  3  2  2  0     0  0
  4  2  1  0     0  0
  5  4  2  0     0  0
  6  5  1  0     0  0
  6  7  2  0     0  0
  7  1  1  0     0  0
  8  7  1  0     0  0
  9  8  1  0     0  0
 10  9  2  0     0  0
 11 10  1  0     0  0
 12 11  1  0     0  0
 13 12  2  0     0  0
 14 13  1  0     0  0
 13 15  1  0     0  0
 15 16  2  0     0  0
 16 10  1  0     0  0
 11 17  2  0     0  0
 17 18  1  0     0  0
 18 19  1  0     0  0
 19  1  1  0     0  0
 18  8  2  0     0  0
 20 17  1  0     0  0
 21 20  1  0     0  0
 22  5  1  0     0  0
 22 23  1  0     0  0
 24 23  1  0     0  0
 25 22  1  0     0  0
 25 26  1  0     0  0
 26 27  1  0     0  0
 27  4  1  0     0  0
 28 25  2  0     0  0
 22 29  1  6     0  0
 29 30  1  0     0  0
 30 31  2  0     0  0
 30 32  1  0     0  0
 32 33  1  0     0  0
 33 34  1  0     0  0
 34 35  2  0     0  0
 34 36  1  0     0  0
 36 37  1  0     0  0
 38 37  1  0     0  0
 39 38  1  0     0  0
 40 39  1  0     0  0
 41 40  1  0     0  0
 42 41  1  0     0  0
 43 42  1  0     0  0
 43 44  1  0     0  0
 44 45  1  0     0  0
 45 46  1  0     0  0
 46 47  1  0     0  0
 47 48  1  0     0  0
 48 49  1  0     0  0
 49 50  1  0     0  0
 51 50  1  0     0  0
 52 51  1  0     0  0
 53 52  1  0     0  0
 54 53  1  0     0  0
 55 54  1  0     0  0
 56 55  1  0     0  0
 57 56  1  1     0  0
 57 58  1  0     0  0
 59 58  1  0     0  0
 60 57  1  0     0  0
 61 60  2  0     0  0
 60 62  1  0     0  0
 62 63  1  0     0  0
 63 64  1  0     0  0
 64 65  1  0     0  0
 66 65  2  0     0  0
 65 67  1  0     0  0
 68 67  1  0     0  0
 69 68  1  0     0  0
 70 69  1  0     0  0
 71 70  1  0     0  0
 72 71  1  0     0  0
 73 70  2  0     0  0
 74 73  1  0     0  0
 75 74  2  0     0  0
 76 75  1  0     0  0
 75 77  1  0     0  0
 77 78  2  0     0  0
 78 79  1  0     0  0
 79 80  2  0     0  0
 80 81  1  0     0  0
 69 81  2  0     0  0
 81 82  1  0     0  0
 83 82  2  0     0  0
 83 84  1  0     0  0
 84 64  2  0     0  0
 57 84  1  0     0  0
 82 67  1  0     0  0
 73 79  1  0     0  0
 55 85  2  0     0  0
 52 86  2  0     0  0
 46 87  1  0     0  0
 87 88  1  0     0  0
 88 89  1  0     0  0
 89 90  1  0     0  0
 90 91  1  0     0  0
 92 91  1  0     0  0
 93 92  1  0     0  0
 93 94  2  0     0  0
 95 93  1  0     0  0
 96 95  1  0     0  0
 97 96  1  0     0  0
 97 98  2  0     0  0
 99 97  1  0     0  0
100 99  1  6     0  0
101100  1  0     0  0
102101  2  0     0  0
101103  1  0     0  0
103104  1  0     0  0
104105  1  0     0  0
106105  2  0     0  0
100106  1  0     0  0
107106  1  0     0  0
107108  2  0     0  0
109108  1  0     0  0
110109  2  0     0  0
110111  1  0     0  0
111112  1  0     0  0
108112  1  0     0  0
113112  1  0     0  0
105113  1  0     0  0
114113  2  0     0  0
115110  1  0     0  0
116115  1  0     0  0
117116  1  0     0  0
118115  2  0     0  0
119118  1  0     0  0
120119  2  0     0  0
120121  1  0     0  0
121122  2  0     0  0
122123  1  0     0  0
118123  1  0     0  0
123124  2  0     0  0
124109  1  0     0  0
125120  1  0     0  0
100126  1  0     0  0
127126  1  0     0  0
 42128  1  0     0  0
128129  1  0     0  0
129130  1  0     0  0
130131  1  0     0  0
132131  1  0     0  0
133132  1  0     0  0
133134  2  0     0  0
135133  1  0     0  0
136135  1  0     0  0
137136  1  0     0  0
137138  2  0     0  0
139137  1  0     0  0
140139  1  1     0  0
140141  1  0     0  0
142141  1  0     0  0
140143  1  0     0  0
144143  1  0     0  0
144145  2  0     0  0
145146  1  0     0  0
147146  1  0     0  0
148147  2  0     0  0
149147  1  0     0  0
143149  2  0     0  0
150149  1  0     0  0
151150  1  0     0  0
152151  1  0     0  0
152140  1  0     0  0
153152  2  0     0  0
154146  1  0     0  0
155154  1  0     0  0
155156  2  0     0  0
157156  1  0     0  0
158157  2  0     0  0
159158  1  0     0  0
160159  1  0     0  0
161160  2  0     0  0
162161  1  0     0  0
161163  1  0     0  0
163164  2  0     0  0
164158  1  0     0  0
159165  2  0     0  0
166165  1  0     0  0
167166  1  0     0  0
165155  1  0     0  0
156145  1  0     0  0
M  STY  4   1 SRU   2 SRU   3 SRU   4 SRU
M  SLB  4   1   1   2   2   3   3   4   4
M  SCN  4   1 HT    2 HT    3 HT    4 HT
M  SAL   1  3  38  39  40
M  SBL   1  2  42  45
M  SMT   1 A
M  SDI   1  4    5.4500   -9.1500    5.4500   -8.4000
M  SDI   1  4    7.6200   -8.4800    7.6200   -9.2300
M  SAL   2  3 128 129 130
M  SBL   2  2 142 145
M  SMT   2 A
M  SDI   2  4    5.7100  -10.3500    5.7100   -9.5800
M  SDI   2  4    7.6200   -9.5800    7.6200  -10.3500
M  SAL   3  3  47  48  49
M  SBL   3  2  51  54
M  SMT   3 A
M  SDI   3  4    2.4100   -9.3100    2.4100  -10.0700
M  SDI   3  4    0.5100  -10.0700    0.5100   -9.3100
M  SAL   4  3  88  89  90
M  SBL   4  2  97 100
M  SMT   4 A
M  SDI   4  4    2.6700  -10.5200    2.6700  -11.2700
M  SDI   4  4    0.5100  -11.1800    0.5100  -10.4300
M  END
> <SUBSTANCE_ID>
90445

> <UNII>
WC4978T687

> <DESC_PART1>
<POLYMER>
 <POLYMER_CLASS>HOMOPOLYMER</POLYMER_CLASS>
 <POLYMER_GEOMETRY>BRANCHED</POLYMER_GEOMETRY>
 <COPOLYMER_SEQUENCE_TYPE/>
<MONOMER_DESCRIPTION>
 <NUMBER_OF_MONOMERS>1</NUMBER_OF_MONOMERS>
 <MONOMER_AMOUNT_TYPE>MOLE PERCENT</MONOMER_AMOUNT_TYPE>
<MONOMER_GROUP>
 <MONOMER_ID>JJH7GNN18P</MONOMER_ID>
 <MONOMER_NAME>ETHYLENE OXIDE</MONOMER_NAME>
<AMOUNT>
 <AVERAGE>100</AVERAGE>
 <LOW_LIMIT/>
 <HIGH_LIMIT/>
 <UNIT/>
 <NON_NUMERIC_VALUE/>
 </AMOUNT>
 </MONOMER_GROUP>
 </MONOMER_DESCRIPTION>
<STRUCTURAL_REPEAT_UNIT>
 <NUMBER_OF_STRUCTURAL_REPEAT_UNITS>4</NUMBER_OF_STRUCTURAL_REPEAT_UNITS>
 <STRUCTURAL_REPEAT_UNIT_AMOUNT_TYPE/>
<STRUCTURAL_REPEAT_UNIT_GROUP>
 <ORIENTATION_OF_POLYMERIZATION>HEAD-TAIL</ORIENTATION_OF_POLYMERIZATION>
 <STRUCTURAL_REPEAT_UNIT>A</STRUCTURAL_REPEAT_UNIT>
<AMOUNT>
 <AVERAGE/>
 <LOW_LIMIT/>
 <HIGH_LIMIT/>
 <UNIT/>
 <NON_NUMERIC_VALUE/>
 </AMOUNT>
<DEGREE_POLYMERIZATION>
<AMOUNT>
 <AVERAGE>220</AVERAGE>
 <LOW_LIMIT/>
 <HIGH_LIMIT/>
 <UNIT/>
 <NON_NUMERIC_VALUE/>
 </AMOUNT>
 </DEGREE_POLYMERIZATION>
 </STRUCTURAL_REPEAT_UNIT_GROUP>
 </STRUCTURAL_REPEAT_UNIT>
<MOLECULAR_WEIGHT>
 <MOLECULAR_WEIGHT_TYPE>WEIGHT AVERAGE</MOLECULAR_WEIGHT_TYPE>
 <MOLECULAR_WEIGHT_METHOD/>
<AMOUNT>
 <AVERAGE>42000</AVERAGE>
 <LOW_LIMIT/>
 <HIGH_LIMIT/>
 <UNIT/>
 <NON_NUMERIC_VALUE/>
 </AMOUNT>
 </MOLECULAR_WEIGHT>
<PROPERTY_GROUP>
 <PROPERTY_TYPE/>
 <PROPERTY/>
 <EXPERIMENTAL_CONDITIONS/>
 <SUBSTANCE_NAME/>
 <SUBSTANCE_ID/>
 <AMOUNT_TYPE/>
<AMOUNT>
 <AVERAGE/>
 <LOW_LIMIT/>
 <HIGH_LIMIT/>
 <UNIT/>
 <NON_NUMERIC_VALUE/>
 </AMOUNT>
 </PROPERTY_GROUP>
<MODIFICATION_GROUP>
 <MODIFICATION_TYPE/>
<PHYSICAL_MODIFICATION>
 <ROLE/>
 <NUMBER_OF_PARAMETERS/>
<PARAMETER_GROUP>
 <PARAMETER/>
<AMOUNT>
 <AVERAGE/>
 <LOW_LIMIT/>
 <HIGH_LIMIT/>
 <UNIT/>
 <NON_NUMERIC_VALUE/>
 </AMOUNT>
 </PARAMETER_GROUP>
 </PHYSICAL_MODIFICATION>
<STRUCTURAL_MODIFICATION>
 <STRUCTURAL_MODIFICATION_TYPE/>
<MOIETY>
 <ROLE/>
 <MOIETY_NAME/>
 <MOIETY_ID/>
 <AMOUNT_TYPE/>
<AMOUNT>
 <AVERAGE/>
 <LOW_LIMIT/>
 <HIGH_LIMIT/>
 <UNIT/>
 <NON_NUMERIC_VALUE/>
 </AMOUNT>
 </MOIETY>
<MOLECULAR_FRAGMENT>
 <ROLE/>
 <MOLECULAR_FRAGMENT_NAME/>
 <MOLECULAR_FRAGMENT_ID/>
 <CONNECTIVITY/>
 <AMOUNT_TYPE/>
<AMOUNT>
 <AVERAGE/>
 <LOW_LIMIT/>
 <HIGH_LIMIT/>
 <UNIT/>
 <NON_NUMERIC_VALUE/>
 </AMOUNT>
 </MOLECULAR_FRAGMENT>
 </STRUCTURAL_MODIFICATION>
<AGENT_MODIFICATION>
 <NUMBER_OF_AGENT_MODIFICATION/>
<MODIFICATION>
 <MODIFICATION_NUMBER/>
 <AGENT_MODIFICATION_TYPE/>
 <ROLE/>
 <MODIFICATION_AGENT/>
 <MODIFICATION_AGENT_ID/>
 <MODIFICATION_PROCESS/>
<AMOUNT>
 <AVERAGE/>
 <LOW_LIMIT/>
 <HIGH_LIMIT/>
 <UNIT/>
 <NON_NUMERIC_VALUE/>
 </AMOUNT>
 </MODIFICATION>
 </AGENT_MODIFICATION>
 </MODIFICATION_GROUP>
<SOURCE_MATERIAL>
 <SOURCE_MATERIAL_CLASS/>
 <SOURCE_MATERIAL_TYPE/>
 <SOURCE_MATERIAL_STATE/>
<FAMILY>
<GENUS>
<SPECIES>
 <STRAIN/>
 </SPECIES>
 </GENUS>
 </FAMILY>
 <ORGANISM_NAME_ID/>
 <PARENT_SUBSTANCE_ID/>
 <PARENT_SUBSTANCE_NAME/>
 <DEVELOPMENTAL_STAGE/>
<PART_GROUP>
 <PART/>
 <PART_LOCATION/>
 </PART_GROUP>
<FRACTION>
 <MATERIAL_TYPE/>
 <FRACTION/>
 </FRACTION>
 </SOURCE_MATERIAL>
 <COMMENTS/>
 </POLYMER>
<STEREOCHEMISTRY><OPT_ACT></OPT_ACT><TYPE>MIXED</TYPE><COMMENTS></COMMENTS></STEREOCHEMISTRY>

> <CDBREGNO>
86366

> <STRUCTURE_ID>
51080

$$$$

  Symyx   06031522332D 1   1.00000     0.00000     0

  7  5  0     0  0            999 V2000
   -1.9792   -2.9750    0.0000 P   0  0  3  0  0  0           0  0  0
   -1.9833   -2.1500    0.0000 O   0  0  0  0  0  0           0  0  0
   -1.9833   -3.8000    0.0000 O   0  5  0  0  0  0           0  0  0
   -1.1583   -2.9709    0.0000 O   0  0  0  0  0  0           0  0  0
   -3.1625   -2.9709    0.0000 *   0  0  0  0  0  0           0  0  0
    0.0208   -2.9709    0.0000 *   0  0  0  0  0  0           0  0  0
   -1.9833   -4.5083    0.0000 K   0  3  0  0  0  0           0  0  0
  1  4  1  0     0  0
  1  3  1  0     0  0
  1  5  1  0     0  0
  1  2  2  0     0  0
  4  6  1  0     0  0
M  CHG  2   3  -1   7   1
M  STY  1   1 SRU
M  SLB  1   1   1
M  SCN  1   1 HT
M  SAL   1  5   1   2   3   4   7
M  SBL   1  2   3   5
M  SDI   1  4   -2.6500   -3.3500   -2.6500   -2.5000
M  SDI   1  4   -0.6000   -2.5000   -0.6000   -3.3500
M  END
> <SUBSTANCE_ID>
12707

> <UNII>
01DMT14Z63

> <DESC_PART1>
<POLYMER></POLYMER>

> <COMMENTS>
FDA_ID: F012737  
Merck Index: High mol wt polymer; degree of polymerization dependent upon preparative conditions. Prepd by dehydration of KH2PO4: Pfansteil, Iler, J. Am. Chem. Soc. 74, 6059 (1952). Structural studies: Jost, Acta Crystallogr. 16, 623 (1963); Jost, Schulze, ibid. 25B, 1110 (1969); eidem, ibid. 27B, 1345 (1971). Reviews of metaphosphates: J. R. Van Wazer, Phosphorus and Its Compounds vol 1 (Interscience, New York, 1958) pp 601-678; Thilo, Adv. Inorg. Chem. Radiochem. 4, 1-75 (1962). White, monoclinic crystals. d20 2.45. Insol in pure water. Sol in aq solns of alkali metal (except potassium) salts.

> <CDBREGNO>
12732

> <STRUCTURE_ID>
12732

$$$$

  Symyx   06031522332D 1   1.00000     0.00000     0

 40 40  0     1  0            999 V2000
   16.6458   -8.3750    0.0000 *   0  0  0  0  0  0           0  0  0
   15.4667   -8.3750    0.0000 S   0  0  0  0  0  0           0  0  0
   14.8792   -7.3542    0.0000 C   0  0  3  0  0  0           0  0  0
   13.7666   -5.8107    0.0000 N   0  0  3  0  0  0           0  0  0
   13.7624   -6.9898    0.0000 C   0  0  0  0  0  0           0  0  0
   15.5792   -6.4067    0.0000 C   0  0  0  0  0  0           0  0  0
   14.8893   -5.4503    0.0000 C   0  0  0  0  0  0           0  0  0
   12.8068   -7.6807    0.0000 O   0  0  0  0  0  0           0  0  0
   15.2577   -4.3302    0.0000 O   0  0  0  0  0  0           0  0  0
    5.6125   -5.8417    0.0000 C   0  0  0  0  0  0           0  0  0
    6.6292   -5.2500    0.0000 N   0  0  0  0  0  0           0  0  0
    7.6500   -5.8333    0.0000 C   0  0  0  0  0  0           0  0  0
    8.6667   -5.2417    0.0000 C   0  0  0  0  0  0           0  0  0
    9.6875   -5.8250    0.0000 N   0  0  0  0  0  0           0  0  0
   10.7042   -5.2333    0.0000 C   0  0  0  0  0  0           0  0  0
   11.7250   -5.8167    0.0000 C   0  0  0  0  0  0           0  0  0
   12.7417   -5.2250    0.0000 C   0  0  0  0  0  0           0  0  0
   10.6995   -4.0542    0.0000 O   0  0  0  0  0  0           0  0  0
    4.5917   -5.2583    0.0000 C   0  0  1  0  0  0           0  0  0
    3.5750   -5.8500    0.0000 N   0  0  0  0  0  0           0  0  0
    2.5542   -5.2667    0.0000 C   0  0  0  0  0  0           0  0  0
    5.6125   -7.0208    0.0000 O   0  0  0  0  0  0           0  0  0
    4.5875   -4.0833    0.0000 C   0  0  0  0  0  0           0  0  0
    5.6042   -3.4917    0.0000 C   0  0  0  0  0  0           0  0  0
    5.6000   -2.3167    0.0000 C   0  0  0  0  0  0           0  0  0
    1.5333   -5.8500    0.0000 O   0  0  0  0  0  0           0  0  0
    0.5167   -5.2583    0.0000 C   0  0  0  0  0  0           0  0  0
   -0.5042   -5.8417    0.0000 C   0  0  0  0  0  0           0  0  0
   -1.5208   -5.2500    0.0000 O   0  0  0  0  0  0           0  0  0
   -2.5417   -5.8333    0.0000 C   0  0  0  0  0  0           0  0  0
    2.5500   -4.0875    0.0000 O   0  0  0  0  0  0           0  0  0
    4.5833   -1.7250    0.0000 C   0  0  0  0  0  0           0  0  0
    3.5625   -2.3083    0.0000 N   0  0  0  0  0  0           0  0  0
    2.5458   -1.7167    0.0000 C   0  0  0  0  0  0           0  0  0
    1.5250   -2.3000    0.0000 O   0  0  0  0  0  0           0  0  0
    0.5083   -1.7083    0.0000 C   0  0  0  0  0  0           0  0  0
   -0.5125   -2.2917    0.0000 C   0  0  0  0  0  0           0  0  0
   -1.5292   -1.7000    0.0000 O   0  0  0  0  0  0           0  0  0
   -2.5500   -2.2833    0.0000 C   0  0  0  0  0  0           0  0  0
    2.5417   -0.5375    0.0000 O   0  0  0  0  0  0           0  0  0
 19 20  1  0     0  0
  4  5  1  0     0  0
 20 21  1  0     0  0
 10 11  1  0     0  0
 10 22  2  0     0  0
  5  3  1  0     0  0
 19 23  1  1     0  0
 11 12  1  0     0  0
 23 24  1  0     0  0
  3  6  1  0     0  0
 24 25  1  0     0  0
 12 13  1  0     0  0
 21 26  1  0     0  0
  6  7  1  0     0  0
 26 27  1  0     0  0
 13 14  1  0     0  0
 27 28  1  0     0  0
  7  4  1  0     0  0
 28 29  1  0     0  0
 14 15  1  0     0  0
 29 30  1  0     0  0
  1  2  1  0     0  0
 21 31  2  0     0  0
 15 16  1  0     0  0
 25 32  1  0     0  0
  5  8  2  0     0  0
 32 33  1  0     0  0
 16 17  1  0     0  0
 33 34  1  0     0  0
 17  4  1  0     0  0
 34 35  1  0     0  0
 35 36  1  0     0  0
 15 18  2  0     0  0
 36 37  1  0     0  0
  7  9  2  0     0  0
 37 38  1  0     0  0
 10 19  1  0     0  0
 38 39  1  0     0  0
  2  3  1  0     0  0
 34 40  2  0     0  0
M  STY  2   1 SRU   2 SRU
M  SLB  2   1   1   2   2
M  SCN  2   1 HT    2 HT
M  SAL   1  3  26  27  28
M  SBL   1  2  13  19
M  SMT   1 y
M  SDI   1  4   -0.9000   -5.9500   -0.9000   -5.1300
M  SDI   1  4    2.1600   -5.1400    2.1600   -5.9700
M  SAL   2  3  35  36  37
M  SBL   2  2  31  36
M  SMT   2 x
M  SDI   2  4   -0.9100   -2.4000   -0.9100   -1.5800
M  SDI   2  4    2.1500   -1.5900    2.1500   -2.4200
M  END
> <SUBSTANCE_ID>
24666

> <UNII>
UMD07X179E

> <DESC_PART1>
<POLYMER>
<POLYMER_TYPE>HOMOPOLYMER</POLYMER_TYPE>
<NUMBER_OF_SRU>1</NUMBER_OF_SRU>
<SRU_GROUP>
<SRU_ID>1</SRU_ID>
<ORIENTATION_OF_POLYMERIZATION>HEAD-TAIL</ORIENTATION_OF_POLYMERIZATION>
<SRU_PERCENT>
<AVERAGE>100</AVERAGE>
<LOW_LIMIT/>
<HIGH_LIMIT/>
</SRU_PERCENT>
<R_GROUP>
<R_ID/>
<LIMIT_TYPE/>
<AVERAGE/>
<LOW_LIMIT/>
<HIGH_LIMIT/>
</R_GROUP>
<DEGREE_OF_POLYMERIZATION>
<AVERAGE/>
<LOW_LIMIT/>
<HIGH_LIMIT/>
</DEGREE_OF_POLYMERIZATION>
</SRU_GROUP>
<MW_GROUP>
<TYPE_MW/>
<MW_AVERAGE/>
<LOW_LIMIT/>
<HIGH_LIMIT/>
</MW_GROUP>
<PHYSICAL_PROPERTIES_GROUP>
<PHYSICAL_PROPERTY_TYPE/>
<AVERAGE/>
<LOW_LIMIT/>
<HIGH_LIMIT/>
<UNITS/>
</PHYSICAL_PROPERTIES_GROUP>
<COMMENTS>PROTEIN-POLYMER MW: 40000 DA</COMMENTS>
</POLYMER>
<PROTEIN>
<SEQUENCE_TYPE>COMPLETE</SEQUENCE_TYPE>
<SUBUNITS>2</SUBUNITS>
<SUBUNIT_GROUP>
<SUBUNIT_ID>1</SUBUNIT_ID>
<LENGTH>229</LENGTH>
<SEQUENCE>EVQLVESGGGLVQPGGSLRLSCAASGYVFTDYGMNWVRQAPGKGLEWMGWINTYIGEPIYADSVKGRFTFSLDTSKSTAYLQMNSLRAEDTAVYYCARGYRSYAMDYWGQGTLVTVSSASTKGPSVFPLAPSSKSTSGGTAALGCLVKDYFPEPVTVSWNSGALTSGVHTFPAVLQSSGLYSLSSVVTVPSSSLGTQTYICNVNHKPSNTKVDKKVEPKSCDKTHTCAA</SEQUENCE>
</SUBUNIT_GROUP>
<SUBUNIT_GROUP>
<SUBUNIT_ID>2</SUBUNIT_ID>
<LENGTH>214</LENGTH>
<SEQUENCE>DIQMTQSPSSLSASVGDRVTITCKASQNVGTNVAWYQQKPGKAPKALIYSASFLYSGVPYRFSGSGSGTDFTLTISSLQPEDFATYYCQQYNIYPLTFGQGTKVEIKRTVAAPSVFIFPPSDEQLKSGTASVVCLLNNFYPREAKVQWKVDNALQSGNSQESVTEQDSKDSTYSLSSTLTLSKADYEKHKVYACEVTHQGLSSPVTKSFNRGEC</SEQUENCE>
</SUBUNIT_GROUP>
<MODIFICATION>
<SEQUENCE_SPECIFIC/>
<NON_SPECIFIC>
<PHYSICAL>
<PHYSICAL_TYPE/>
<EXTENT/>
</PHYSICAL>
<CHEMICAL>
<CHEMICAL_NAME_XXXXX/>
<CHEMICAL_ID_XXXXX/>
</CHEMICAL>
</NON_SPECIFIC>
</MODIFICATION>
<GLYCOSYLATION>
<GLYCOSYLATION_TYPE/>
<N_GLYCOSYLATION/>
<O_GLYCOSYLATION/>
</GLYCOSYLATION>
<PEGOYLATED>1_227</PEGOYLATED>
<DISULFIDE_BONDS>1_22-1_96; 1_145-1_201; 1_221-2_214; 2_23-2_88; 2_134-2_194</DISULFIDE_BONDS>
<PROTEIN_TYPE>MONOCLONAL ANTIBODY</PROTEIN_TYPE>
<PROTEIN_SUBTYPE>IGG2</PROTEIN_SUBTYPE>
<SPECIES_TYPE>HUMANIZED</SPECIES_TYPE>
<LIGAND>7124, TUMOR NECROSIS FACTOR ALPHA</LIGAND>
<GENE_ID/>
<COMMENTS_XXXXX/>
</PROTEIN>
<STEREOCHEMISTRY>
<OPT_ACT/>
<TYPE>UNKNOWN</TYPE>
<COMMENTS>PEG</COMMENTS>
</STEREOCHEMISTRY

> <COMMENTS>
Update polymer tags when guidance is complete.

> <CDBREGNO>
53239

> <STRUCTURE_ID>
21733

$$$$

  Symyx   06031522332D 1   1.00000     0.00000     0

 68 72  0     1  0            999 V2000
   11.5501   -9.9791    0.0000 C   0  0  2  0  0  0           0  0  0
   12.3708   -9.5042    0.0000 O   0  0  0  0  0  0           0  0  0
   10.3042  -10.8874    0.0000 C   0  0  2  0  0  0           0  0  0
    9.8333  -11.7083    0.0000 C   0  0  0  0  0  0           0  0  0
    8.8833  -11.7083    0.0000 O   0  0  0  0  0  0           0  0  0
    8.4125  -12.5291    0.0000 P   0  0  3  0  0  0           0  0  0
    6.5125  -12.5291    0.0000 *   0  0  0  0  0  0           0  0  0
    8.4125  -13.4792    0.0000 O   0  0  0  0  0  0           0  0  0
    9.2334  -12.9999    0.0000 O   0  0  0  0  0  0           0  0  0
   11.2542  -10.8874    0.0000 C   0  0  1  0  0  0           0  0  0
   11.7292  -11.7083    0.0000 O   0  0  0  0  0  0           0  0  0
   13.6292  -11.6999    0.0000 *   0  0  0  0  0  0           0  0  0
   10.7836   -9.4270    0.0000 C   0  0  1  0  0  0           0  0  0
   10.0131   -9.9827    0.0000 O   0  0  0  0  0  0           0  0  0
   10.7836   -8.4771    0.0000 N   0  0  3  0  0  0           0  0  0
   11.6047   -8.0036    0.0000 C   0  0  0  0  0  0           0  0  0
   11.6075   -7.0587    0.0000 C   0  0  0  0  0  0           0  0  0
   10.7847   -6.5803    0.0000 C   0  0  0  0  0  0           0  0  0
    9.9609   -7.0557    0.0000 N   0  0  0  0  0  0           0  0  0
    9.9558   -8.0053    0.0000 C   0  0  0  0  0  0           0  0  0
   10.7891   -5.6303    0.0000 N   0  0  0  0  0  0           0  0  0
    9.1347   -8.4826    0.0000 O   0  0  0  0  0  0           0  0  0
    2.0542   -9.9791    0.0000 C   0  0  2  0  0  0           0  0  0
    2.8750   -9.5042    0.0000 O   0  0  0  0  0  0           0  0  0
    0.8083  -10.8874    0.0000 C   0  0  2  0  0  0           0  0  0
    0.3333  -11.7083    0.0000 C   0  0  0  0  0  0           0  0  0
   -0.6125  -11.7083    0.0000 O   0  0  0  0  0  0           0  0  0
   -1.0833  -12.5291    0.0000 P   0  0  3  0  0  0           0  0  0
   -2.9833  -12.5291    0.0000 *   0  0  0  0  0  0           0  0  0
   -1.0833  -13.4792    0.0000 O   0  0  0  0  0  0           0  0  0
   -0.2624  -12.9999    0.0000 O   0  0  0  0  0  0           0  0  0
    1.7584  -10.8874    0.0000 C   0  0  1  0  0  0           0  0  0
    2.2334  -11.7083    0.0000 O   0  0  0  0  0  0           0  0  0
    4.1333  -11.6999    0.0000 *   0  0  0  0  0  0           0  0  0
    1.2836   -9.4270    0.0000 C   0  0  1  0  0  0           0  0  0
    0.5173   -9.9827    0.0000 O   0  0  0  0  0  0           0  0  0
    1.2836   -8.4771    0.0000 N   0  0  3  0  0  0           0  0  0
    2.1088   -8.0036    0.0000 C   0  0  0  0  0  0           0  0  0
    2.1116   -7.0587    0.0000 C   0  0  0  0  0  0           0  0  0
    1.2889   -6.5803    0.0000 C   0  0  0  0  0  0           0  0  0
    0.4651   -7.0557    0.0000 N   0  0  0  0  0  0           0  0  0
    0.4600   -8.0053    0.0000 C   0  0  0  0  0  0           0  0  0
    1.2933   -5.6303    0.0000 O   0  0  0  0  0  0           0  0  0
   -0.3611   -8.4826    0.0000 O   0  0  0  0  0  0           0  0  0
    5.8451    0.9418    0.0000 N   0  0  3  0  0  0           0  0  0
    6.4042    1.7058    0.0000 C   0  0  0  0  0  0           0  0  0
    5.8477    2.4746    0.0000 N   0  0  0  0  0  0           0  0  0
    4.9416    1.2393    0.0000 C   0  0  0  0  0  0           0  0  0
    4.9457    2.1880    0.0000 C   0  0  0  0  0  0           0  0  0
    4.1255    2.6626    0.0000 C   0  0  0  0  0  0           0  0  0
    3.2989    2.1950    0.0000 N   0  0  0  0  0  0           0  0  0
    3.2948    1.2422    0.0000 C   0  0  0  0  0  0           0  0  0
    4.1174    0.7611    0.0000 N   0  0  0  0  0  0           0  0  0
    4.1208    3.6167    0.0000 O   0  0  0  0  0  0           0  0  0
    6.6083   -0.5666    0.0000 C   0  0  2  0  0  0           0  0  0
    7.4292   -0.0875    0.0000 O   0  0  0  0  0  0           0  0  0
    5.3625   -1.4667    0.0000 C   0  0  2  0  0  0           0  0  0
    4.8917   -2.2875    0.0000 C   0  0  0  0  0  0           0  0  0
    3.9417   -2.2875    0.0000 O   0  0  0  0  0  0           0  0  0
    3.4709   -3.1083    0.0000 P   0  0  3  0  0  0           0  0  0
    1.5709   -3.1083    0.0000 *   0  0  0  0  0  0           0  0  0
    3.4709   -4.0583    0.0000 O   0  0  0  0  0  0           0  0  0
    4.2917   -3.5792    0.0000 O   0  0  0  0  0  0           0  0  0
    6.3126   -1.4667    0.0000 C   0  0  1  0  0  0           0  0  0
    6.7876   -2.2875    0.0000 O   0  0  0  0  0  0           0  0  0
    8.6875   -2.2792    0.0000 *   0  0  0  0  0  0           0  0  0
    5.8419   -0.0062    0.0000 C   0  0  1  0  0  0           0  0  0
    5.0714   -0.5661    0.0000 O   0  0  0  0  0  0           0  0  0
 11 12  1  0     0  0
  3 10  1  0     0  0
  5  6  1  0     0  0
 10  1  1  0     0  0
 33 34  1  0     0  0
 25 32  1  0     0  0
 32 23  1  0     0  0
 23 35  1  0     0  0
 35 36  1  0     0  0
 36 25  1  0     0  0
 35 37  1  1     0  0
 37 38  1  0     0  0
 37 42  1  0     0  0
 38 39  2  0     0  0
 39 40  1  0     0  0
 40 41  1  0     0  0
 41 42  1  0     0  0
 40 43  2  0     0  0
 42 44  2  0     0  0
 23 24  1  6     0  0
 25 26  1  1     0  0
 26 27  1  0     0  0
 27 28  1  0     0  0
 28 29  1  0     0  0
 28 30  2  0     0  0
 28 31  1  0     0  0
 32 33  1  6     0  0
  1 13  1  0     0  0
 13 14  1  0     0  0
 14  3  1  0     0  0
  6  7  1  0     0  0
 13 15  1  1     0  0
 15 16  1  0     0  0
  6  8  2  0     0  0
  3  4  1  1     0  0
  6  9  1  0     0  0
 15 20  1  0     0  0
 16 17  2  0     0  0
 17 18  1  0     0  0
 18 19  2  0     0  0
 19 20  1  0     0  0
  4  5  1  0     0  0
 18 21  1  0     0  0
 10 11  1  6     0  0
 20 22  2  0     0  0
  1  2  1  6     0  0
 48 45  1  0     0  0
 45 46  1  0     0  0
 46 47  2  0     0  0
 47 49  1  0     0  0
 48 49  2  0     0  0
 48 53  1  0     0  0
 49 50  1  0     0  0
 50 51  1  0     0  0
 51 52  1  0     0  0
 52 53  2  0     0  0
 50 54  2  0     0  0
 55 56  1  6     0  0
 57 58  1  1     0  0
 58 59  1  0     0  0
 59 60  1  0     0  0
 60 61  1  0     0  0
 60 62  2  0     0  0
 60 63  1  0     0  0
 64 65  1  6     0  0
 65 66  1  0     0  0
 57 64  1  0     0  0
 64 55  1  0     0  0
 55 67  1  0     0  0
 67 68  1  0     0  0
 68 57  1  0     0  0
 67 45  1  1     0  0
M  STY  4   1 SRU   2 SRU   3 COP   4 SRU
M  SST  1   3 RAN
M  SLB  4   1   1   2   2   3   3   4   4
M  SCN  4   1 HT    2 HT    3 HT    4 HT
M  SAL   1 15  23  24  25  26  27  28  30  31  32  33  35  36  37  38  39
M  SAL   1  5  40  41  42  43  44
M  SBL   1  2   5  24
M  SMT   1 A
M  SDI   1  4   -2.0900  -12.8300   -2.0900  -12.1700
M  SDI   1  4    3.1600  -11.3400    3.1600  -12.0100
M  SAL   2 15   1   2   3   4   5   6   8   9  10  11  13  14  15  16  17
M  SAL   2  5  18  19  20  21  22
M  SBL   2  2   1  31
M  SMT   2 B
M  SDI   2  4    7.4100  -12.8300    7.4100  -12.1700
M  SDI   2  4   12.6500  -11.3400   12.6500  -12.0100
M  SAL   3 15   1   2   3   4   5   6   7   8   9  10  11  12  13  14  15
M  SAL   3 15  16  17  18  19  20  21  22  23  24  25  26  27  28  29  30
M  SAL   3 14  31  32  33  34  35  36  37  38  39  40  41  42  43  44
M  SDI   3  4   -3.3300  -13.9000   -3.3300   -5.2300
M  SDI   3  4   13.9400   -5.2300   13.9400  -13.9000
M  SAL   4 15  45  46  47  48  49  50  51  52  53  54  55  56  57  58  59
M  SAL   4  7  60  62  63  64  65  67  68
M  SBL   4  2  62  66
M  SMT   4 A
M  SDI   4  4    2.4800   -3.4100    2.4800   -2.7500
M  SDI   4  4    7.7200   -1.9200    7.7200   -2.5900
M  END
> <SUBSTANCE_ID>
27710

> <UNII>
94325AJ25N

> <DESC_PART1>
<SUBSTANCE>
 <SUBSTANCE_ID />
 <REFERENCE_INFORMATION>
 <SUBSTANCE_RELATIONSHIP_GROUP>
 <RELATIONSHIP />
 <TYPE_OF_INTERACTION />
 <SUBSTANCE_ID />
 <SUBSTANCE_NAME />
 <RELATIONSHIP />
 <AMOUNT_TYPE />
 <AMOUNT>
 <AVERAGE />
 <LOW_LIMIT />
 <HIGH_LIMIT />
 <UNIT />
 <NON_NUMERIC_VALUE />
 </AMOUNT>
 <REFERENCE_SOURCE_GROUP>
 <PUBLIC_DOMAIN />
 <REFERENCE_SOURCE_TYPE />
 <REFERENCE_SOURCE_IDENTIFIER />
 <REFERENCE_SOURCE_CITATION />
 </REFERENCE_SOURCE_GROUP>
 </SUBSTANCE_RELATIONSHIP_GROUP>
 <GENE_GROUP>
 <GENE_SEQUENCE_ORIGIN />
 <GENE_ID />
 <GENE_NAME />
 <REFERENCE_SOURCE_GROUP>
 <PUBLIC_DOMAIN />
 <REFERENCE_SOURCE_TYPE />
 <REFERENCE_SOURCE_IDENTIFIER />
 <REFERENCE_SOURCE_CITATION />
 </REFERENCE_SOURCE_GROUP>
 </GENE_GROUP>
 <SUBSTANCE_CLASSIFICATION>
 <DOMAIN />
 <SUBSTANCE_TYPE>POLYNUCLEOTIDE</SUBSTANCE_TYPE>
 <SUBSTANCE_SUBTYPE />
 <REFERENCE_SOURCE_GROUP>
 <PUBLIC_DOMAIN />
 <REFERENCE_SOURCE_TYPE />
 <REFERENCE_SOURCE_IDENTIFIER />
 <REFERENCE_SOURCE_CITATION />
 </REFERENCE_SOURCE_GROUP>
 </SUBSTANCE_CLASSIFICATION>
 <TARGET_GROUP>
 <TARGET_ORGANISM />
 <TARGET_TYPE />
 <TARGET_NAME />
 <TARGET_ID />
 <TARGET_ID_SOURCE />
 <INTERACTION_TYPE />
 <REFERENCE_SOURCE_GROUP>
 <PUBLIC_DOMAIN />
 <REFERENCE_SOURCE_TYPE />
 <REFERENCE_SOURCE_IDENTIFIER />
 <REFERENCE_SOURCE_CITATION />
 </REFERENCE_SOURCE_GROUP>
 </TARGET_GROUP>
 <COMMENTS />
 </REFERENCE_INFORMATION>
 <SINGLE_SUBSTANCE>
 <STRUCTURE>
 <STRUCTURAL_REPRESENTATION_TYPE />
 <STRUCTURAL_REPRESENTATION />
 <STEREOCHEMISTRY />
 <OPTICAL_ACTIVITY />
 <PUBLIC_DOMAIN />
 <ISOTOPE_GROUP>
 <NUCLIDE_ID />
 <NUCLIDE_NAME />
 <SUBSTITUTION_TYPE />
 </ISOTOPE_GROUP>
 </STRUCTURE>
 <ELEMENT_TYPE>
 <NUCLEIC_ACID>
 <SEQUENCE_TYPE>COMPLETE</SEQUENCE_TYPE>
 <NUMBER_OF_SUBUNITS>2</NUMBER_OF_SUBUNITS>
 <SUBUNIT_GROUP>
 <SUBUNIT>1</SUBUNIT>
 <SUBUNIT_TYPE>LINEAR</SUBUNIT_TYPE>
 <LENGTH>UNKNOWN</LENGTH>
 <SUGAR_LINKER>
 <MOLFILE><![CDATA[
 ACCLDraw06211412552D

 14 14 0 0 1 0 0 0 0 0999 V2000
 12.9419 -9.0377 0.0000 C 0 0 1 0 0 0 0 0 0 0 0 0
 13.7770 -8.2026 0.0000 O 0 0 0 0 0 0 0 0 0 0 0 0
 13.5286 -10.0540 0.0000 C 0 0 2 0 0 0 0 0 0 0 0 0
 14.8201 -8.8048 0.0000 C 0 0 2 0 0 0 0 0 0 0 0 0
 14.6590 -9.9013 0.0000 C 0 0 2 0 0 0 0 0 0 0 0 0
 12.6362 -7.8969 0.0000 C 0 0 0 0 0 0 0 0 0 0 0 0
 11.4954 -7.5912 0.0000 O 0 0 0 0 0 0 0 0 0 0 0 0
 11.1897 -6.4503 0.0000 P 0 0 3 0 0 0 0 0 0 0 0 0
 10.0488 -6.1446 0.0000 O 0 0 0 0 0 0 0 0 0 0 0 0
 12.0248 -5.6151 0.0000 O 0 0 0 0 0 0 0 0 0 0 0 0
 10.8840 -5.3094 0.0000 O 0 0 0 0 0 0 0 0 0 0 0 0
 12.9381 -11.0768 0.0000 O 0 0 0 0 0 0 0 0 0 0 0 0
 15.8430 -8.2142 0.0000 O 0 0 0 0 0 0 0 0 0 0 0 0
 15.4942 -10.7365 0.0000 O 0 0 0 0 0 0 0 0 0 0 0 0
 4 5 1 0 0 0 0
 3 5 1 0 0 0 0
 2 4 1 0 0 0 0
 1 3 1 0 0 0 0
 1 2 1 0 0 0 0
 1 6 1 1 0 0 0
 6 7 1 0 0 0 0
 7 8 1 0 0 0 0
 8 9 2 0 0 0 0
 8 10 1 0 0 0 0
 8 11 1 0 0 0 0
 3 12 1 6 0 0 0
 4 13 1 1 0 0 0
 5 14 1 6 0 0 0
M END
]]></MOLFILE>
 <FRAGMENT_CONNECTIVITY>11;12;13</FRAGMENT_CONNECTIVITY>
 <RESIDUES></RESIDUES>
 <DEGREE_POLYMERIZ

> <DESC_PART2>
ATION>
 <AMOUNT>
 <AVERAGE>32-A</AVERAGE>
 <LOW_LIMIT />
 <HIGH_LIMIT />
 <UNIT />
 <NON_NUMERIC_VALUE />
 </AMOUNT>
 </DEGREE_POLYMERIZATION>
 </SUGAR_LINKER>
 <BASE>
 <BASE></BASE>
 <MOLFILE><![CDATA[
 ACCLDraw06211422372D

 11 11 0 0 0 0 0 0 0 0999 V2000
 7.3528 -5.5651 0.0000 C 0 0 0 0 0 0 0 0 0 0 0 0
 9.3951 -5.5646 0.0000 N 0 0 3 0 0 0 0 0 0 0 0 0
 8.3759 -4.9748 0.0000 C 0 0 0 0 0 0 0 0 0 0 0 0
 9.3951 -6.7460 0.0000 C 0 0 0 0 0 0 0 0 0 0 0 0
 7.3528 -6.7513 0.0000 C 0 0 0 0 0 0 0 0 0 0 0 0
 8.3784 -7.3356 0.0000 N 0 0 0 0 0 0 0 0 0 0 0 0
 5.5362 -6.1520 0.0000 C 0 0 0 0 0 0 0 0 0 0 0 0
 6.2215 -7.1077 0.0000 N 0 0 3 0 0 0 0 0 0 0 0 0
 6.2353 -5.1988 0.0000 N 0 0 0 0 0 0 0 0 0 0 0 0
 8.3759 -3.7937 0.0000 O 0 0 0 0 0 0 0 0 0 0 0 0
 15.2500 3.1250 0.0000 O 0 0 0 0 0 0 0 0 0 0 0 0
 6 4 2 0 0 0 0
 5 6 1 0 0 0 0
 2 3 1 0 0 0 0
 1 5 2 0 0 0 0
 4 2 1 0 0 0 0
 3 1 1 0 0 0 0
 9 7 2 0 0 0 0
 7 8 1 0 0 0 0
 5 8 1 0 0 0 0
 1 9 1 0 0 0 0
 3 10 2 0 0 0 0
M END
]]></MOLFILE>
 <FRAGMENT_CONNECTIVITY>8</FRAGMENT_CONNECTIVITY>
 <RESIDUES></RESIDUES>
 <AMOUNT>
 <AVERAGE>1/1</AVERAGE>
 <LOW_LIMIT />
 <HIGH_LIMIT />
 <UNIT>MOLE FRACTION</UNIT>
 <NON_NUMERIC_VALUE />
 </AMOUNT>
 </BASE>
 </SUBUNIT_GROUP>
 <SUBUNIT_GROUP>
 <SUBUNIT>2</SUBUNIT>
 <SUBUNIT_TYPE>LINEAR</SUBUNIT_TYPE>
 <LENGTH>UNKNOWN</LENGTH>
 <SUGAR_LINKER>
 <MOLFILE><![CDATA[
 ACCLDraw06211412552D

 14 14 0 0 1 0 0 0 0 0999 V2000
 12.9419 -9.0377 0.0000 C 0 0 1 0 0 0 0 0 0 0 0 0
 13.7770 -8.2026 0.0000 O 0 0 0 0 0 0 0 0 0 0 0 0
 13.5286 -10.0540 0.0000 C 0 0 2 0 0 0 0 0 0 0 0 0
 14.8201 -8.8048 0.0000 C 0 0 2 0 0 0 0 0 0 0 0 0
 14.6590 -9.9013 0.0000 C 0 0 2 0 0 0 0 0 0 0 0 0
 12.6362 -7.8969 0.0000 C 0 0 0 0 0 0 0 0 0 0 0 0
 11.4954 -7.5912 0.0000 O 0 0 0 0 0 0 0 0 0 0 0 0
 11.1897 -6.4503 0.0000 P 0 0 3 0 0 0 0 0 0 0 0 0
 10.0488 -6.1446 0.0000 O 0 0 0 0 0 0 0 0 0 0 0 0
 12.0248 -5.6151 0.0000 O 0 0 0 0 0 0 0 0 0 0 0 0
 10.8840 -5.3094 0.0000 O 0 0 0 0 0 0 0 0 0 0 0 0
 12.9381 -11.0768 0.0000 O 0 0 0 0 0 0 0 0 0 0 0 0
 15.8430 -8.2142 0.0000 O 0 0 0 0 0 0 0 0 0 0 0 0
 15.4942 -10.7365 0.0000 O 0 0 0 0 0 0 0 0 0 0 0 0
 4 5 1 0 0 0 0
 3 5 1 0 0 0 0
 2 4 1 0 0 0 0
 1 3 1 0 0 0 0
 1 2 1 0 0 0 0
 1 6 1 1 0 0 0
 6 7 1 0 0 0 0
 7 8 1 0 0 0 0
 8 9 2 0 0 0 0
 8 10 1 0 0 0 0
 8 11 1 0 0 0 0
 3 12 1 6 0 0 0
 4 13 1 1 0 0 0
 5 14 1 6 0 0 0
M END
]]></MOLFILE>
 <FRAGMENT_CONNECTIVITY>11;12;13</FRAGMENT_CONNECTIVITY>
 <RESIDUES></RESIDUES>
 <DEGREE_POLYMERIZATION>
 <AMOUNT>
 <AVERAGE>32-A</AVERAGE>
 <LOW_LIMIT />
 <HIGH_LIMIT />
 <UNIT />
 <NON_NUMERIC_VALUE />
 </AMOUNT>
 </DEGREE_POLYMERIZATION>
 </SUGAR_LINKER>
 <BASE>
 <BASE>U</BASE>
 <MOLFILE />
 <FRAGMENT_CONNECTIVITY />

> <DESC_PART3>
<RESIDUES></RESIDUES>
 <AMOUNT>
 <AVERAGE>1/13</AVERAGE>
 <LOW_LIMIT />
 <HIGH_LIMIT />
 <UNIT>MOLE FRACTION</UNIT>
 <NON_NUMERIC_VALUE />
 </AMOUNT>
 </BASE>
 <BASE>
 <BASE>C</BASE>
 <MOLFILE />
 <FRAGMENT_CONNECTIVITY />
 <RESIDUES></RESIDUES>
 <AMOUNT>
 <AVERAGE>12/13</AVERAGE>
 <LOW_LIMIT />
 <HIGH_LIMIT />
 <UNIT>MOLE FRACTION</UNIT>
 <NON_NUMERIC_VALUE />
 </AMOUNT>
 </BASE>
 </SUBUNIT_GROUP>
 <AREA_OF_HYBRIDISATION>1_1-1_0:2_0-2_1</AREA_OF_HYBRIDISATION>
 <MODIFICATION_GROUP>
 <STRUCTURAL_MODIFICATION_GROUP>
 <RESIDUE_MODIFIED />
 <RESIDUE_SITE />
 <NUMBER_OF_FRAGMENTS_MOIETIES />
 <AMOUNT_TYPE />
 <MOLECULAR_FRAGMENT_MOIETY>
 <STRUCTURAL_MODIFICATION_TYPE />
 <ROLE />
 <FRAGMENT_NUMBER />
 <MOLECULAR_FRAGMENT_NAME />
 <MOLECULAR_FRAGMENT_ID />
 <MOLECULAR_FRAGMENT_INCHI />
 <FRAGMENT_CONNECTIVTY />
 <AMOUNT>
 <AVERAGE />
 <LOW_LIMIT />
 <HIGH_LIMIT />
 <UNIT />
 <NON_NUMERIC_VALUE />
 </AMOUNT>
 </MOLECULAR_FRAGMENT_MOIETY>
 </STRUCTURAL_MODIFICATION_GROUP>
 </MODIFICATION_GROUP>
 <PROPERTY_GROUP>
 <PROPERTY_TYPE />
 <PROPERTY />
 <PROPERTY_DESCRIPTION>
 <SUBSTANCE_NAME />
 <SUBSTANCE_ID />
 <SUBSTANCE_ID />
 <AMOUNT_TYPE />
 <AMOUNT>
 <AVERAGE />
 <LOW_LIMIT />
 <HIGH_LIMIT />
 <UNIT />
 <NON_NUMERIC_VALUE />
 </AMOUNT>
 </PROPERTY_DESCRIPTION>
 </PROPERTY_GROUP>
 <MOLECULAR_WEIGHT>
 <MOLECULAR_WEIGHT_TYPE>NUMBER</MOLECULAR_WEIGHT_TYPE>
 <MOLECULAR_WEIGHT_METHOD>CALCULATED</MOLECULAR_WEIGHT_METHOD>
 <AMOUNT>
 <AVERAGE></AVERAGE>
 <LOW_LIMIT>400000</LOW_LIMIT>
 <HIGH_LIMIT>1750000 </HIGH_LIMIT>
 <UNIT>Da</UNIT>
 <NON_NUMERIC_VALUE />
 </AMOUNT>
 </MOLECULAR_WEIGHT>
 <COMMENTS />
 <PUBLIC_DOMAIN />
 </NUCLEIC_ACID>
 </ELEMENT_TYPE>
 <REFERENCE_SOURCE_GROUP>
 <PUBLIC_DOMAIN />
 <REFERENCE_SOURCE_TYPE />
 <REFERENCE_SOURCE_IDENTIFIER />
 <REFERENCE_SOURCE_CITATION />
 </REFERENCE_SOURCE_GROUP>
 </SINGLE_SUBSTANCE>
</SUBSTANCE>

> <COMMENTS>
USAN COUN: [400-1750] kDa

> <CDBREGNO>
52762

> <STRUCTURE_ID>
21649

$$$$

  Symyx   06031522332D 1   1.00000     0.00000     0

 25 24  0     1  0            999 V2000
    7.1759   -1.6319    0.0000 N   0  0  0  0  0  0           0  0  0
    8.1157   -1.0779    0.0000 C   0  0  2  0  0  0           0  0  0
    9.2351   -1.4586    0.0000 C   0  0  0  0  0  0           0  0  0
    9.2366   -2.5984    0.0000 O   0  0  0  0  0  0           0  0  0
    8.1086   -0.1839    0.0000 C   0  0  0  0  0  0           0  0  0
    7.2342    0.1420    0.0000 C   0  0  0  0  0  0           0  0  0
    7.2545    1.1367    0.0000 C   0  0  0  0  0  0           0  0  0
    6.5551    1.5805    0.0000 C   0  0  0  0  0  0           0  0  0
    5.7811    1.1369    0.0000 N   0  0  0  0  0  0           0  0  0
    6.2375   -1.0334    0.0000 C   0  0  0  0  0  0           0  0  0
    5.3958   -1.5959    0.0000 O   0  0  0  0  0  0           0  0  0
    6.2375   -0.0959    0.0000 O   0  0  0  0  0  0           0  0  0
   10.2541   -0.8667    0.0000 N   0  0  0  0  0  0           0  0  0
    4.3250   -1.0875    0.0000 C   0  0  0  0  0  0           0  0  0
    3.4416   -1.5917    0.0000 C   0  0  0  0  0  0           0  0  0
    2.5583   -1.0792    0.0000 O   0  0  0  0  0  0           0  0  0
    1.3833   -1.5875    0.0000 C   0  0  0  0  0  0           0  0  0
    5.0791    1.5833    0.0000 C   0  0  0  0  0  0           0  0  0
    4.2375    1.0208    0.0000 O   0  0  0  0  0  0           0  0  0
    5.0791    2.5208    0.0000 O   0  0  0  0  0  0           0  0  0
    3.1666    1.5291    0.0000 C   0  0  0  0  0  0           0  0  0
    2.2833    1.0250    0.0000 C   0  0  0  0  0  0           0  0  0
    1.4000    1.5375    0.0000 O   0  0  0  0  0  0           0  0  0
    0.2250    1.0291    0.0000 C   0  0  0  0  0  0           0  0  0
   11.2750   -1.4542    0.0000 *   0  0  0  0  0  0           0  0  0
  3 13  1  0     0  0
  2  5  1  1     0  0
 11 14  1  0     0  0
  6  5  1  0     0  0
 14 15  1  0     0  0
  7  8  1  0     0  0
 15 16  1  0     0  0
  6  7  1  0     0  0
 16 17  1  0     0  0
  8  9  1  0     0  0
  9 18  1  0     0  0
 18 19  1  0     0  0
  1 10  1  0     0  0
 18 20  2  0     0  0
  2  1  1  0     0  0
 19 21  1  0     0  0
 10 11  1  0     0  0
 21 22  1  0     0  0
  2  3  1  0     0  0
 22 23  1  0     0  0
 10 12  2  0     0  0
 23 24  1  0     0  0
  3  4  2  0     0  0
 13 25  1  0     0  0
M  STY  2   1 SRU   2 SRU
M  SLB  2   1   1   2   2
M  SCN  2   1 HT    2 HT
M  SAL   1  3  21  22  23
M  SBL   1  2  16  22
M  SMT   1 A
M  SDI   1  4    0.7000    1.2000    0.7000    2.0500
M  SDI   1  4    3.5000    2.0500    3.5000    1.2000
M  SAL   2  3  14  15  16
M  SBL   2  2   3   9
M  SMT   2 A
M  SDI   2  4    1.9000   -1.7100    1.9000   -0.9000
M  SDI   2  4    4.7000   -0.9000    4.7000   -1.7500
M  END
> <SUBSTANCE_ID>
13496

> <UNII>
Q46947FE7K

> <DESC_PART1>
<POLYMER>
 <POLYMER_TYPE> HOMOPOLYMER, BRANCHED </POLYMER_TYPE>
 <COMPONENT_NUMBER>1</COMPONENT_NUMBER>
 <COMPONENT_AMOUNT_TYPE>PERCENT</COMPONENT_AMOUNT_TYPE>
<COMPONENT>
 <COMPONENT_NAME>ETHYLENE OXIDE</COMPONENT_NAME>
 <COMPONENT_ID>JJH7GNN18P</COMPONENT_ID>
 <AVERAGE>100</AVERAGE>
 <LOW_LIMIT/>
 <HIGH_LIMIT/>
 </COMPONENT>
 <SRU_NUMBER>1</SRU_NUMBER>
 <SRU_AMOUNT_TYPE>WEIGHT PERCENT</SRU_AMOUNT_TYPE>
<SRU_GROUP>
 <SRU_ID>A</SRU_ID>
 <ORIENTATION_OF_POLYMERIZATION>HEAD-TAIL</ORIENTATION_OF_POLYMERIZATION>
<SRU_AMOUNT>
 <AVERAGE>100</AVERAGE>
 <LOW_LIMIT/>
 <HIGH_LIMIT/>
 </SRU_AMOUNT>
 <NUMBER_OF_RGROUPS/>
 <SUBSTITUTION_AMOUNT_TYPE/>
<R_GROUP>
 <R_ID/>
 <AVERAGE/>
 <LOW_LIMIT/>
 <HIGH_LIMIT/>
 </R_GROUP>
<DEGREE_POLYMERIZATION>
 <AVERAGE>400</AVERAGE>
 <LOW_LIMIT/>
 <HIGH_LIMIT/>
 </DEGREE_POLYMERIZATION>
 </SRU_GROUP>
<MW_GROUP>
 <TYPE_MW/>
 <MW_AVERAGE>40000</MW_AVERAGE>
 <LOW_LIMIT_MW/>
 <HIGH_LIMIT_MW/>
 </MW_GROUP>
<PROPERTIES_GROUP>
 <PROPERTY/>
 <AVERAGE/>
 <LOW_LIMIT/>
 <HIGH_LIMIT/>
 <UNITS/>
 </PROPERTIES_GROUP>
 </POLYMER>
<PROTEIN>
 <SEQUENCE_TYPE>COMPLETE</SEQUENCE_TYPE>
 <SUBUNIT_NUMBER>1</SUBUNIT_NUMBER>
<SUBUNIT_GROUP>
 <SUBUNIT_ID>1</SUBUNIT_ID>
 <LENGTH>165</LENGTH>
 <SEQUENCE>CDLPQTHSLGSRRTLMLLAQMRKISLFSCLKDRHDFGFPQEEFGNQFQKAETIPVLHEMIQQIFNLFSTKDSSAAWDETLLDKFYTELYQQLNDLEACVIQGVGVTETPLMKEDSILAVRKYFQRITLYLKEKKYSPCAWEVVRAEIMRSFSLSTNLQESLRSKE</SEQUENCE>
 <N_TERMINAL/>
 <C_TERMINAL/>
 </SUBUNIT_GROUP>
 <DISULFIDE_LINKAGE/>
<GLYCOSYLATION>
 <GLYCOSYLATION_TYPE/>
 <N_GLYCOSYLATION/>
 <O_GLYCOSYLATION/>
 </GLYCOSYLATION>
<MODIFICATION_STATE>
<MODIFICATION_TYPE>
 CHEMICAL 
<MODIFICATION>
 PEGYLATION, BRANCHED 
 <RESIDUE_MODIFIED>NON-SPECIFIC;LYSINE;</RESIDUE_MODIFIED>
 <EXTENT_OF_MODIFICATION>1 RESIDUE PER MOLECULE</EXTENT_OF_MODIFICATION>
 <MODIFYING_AGENT>BIS-MONO-METHOXY BRANCHED POLYETHYLENE GLYCOL, N-HYDROXYSUCCINIMIDE ESTER</MODIFYING_AGENT>
 <MODIFYING_AGENT_ID>1QP9K934D2</MODIFYING_AGENT_ID>
 </MODIFICATION>
 </MODIFICATION_TYPE>
 </MODIFICATION_STATE>
<MW_GROUP>
 <MW_TYPE/>
 <MW_AVERAGE>60000</MW_AVERAGE>
 <MW_LOW/>
 <MW_HIGH/>
 </MW_GROUP>
<PROTEIN_TYPE>
 CYTOKINE 
 <PROTEIN_SUBTYPE>INTERFERON ALPHA</PROTEIN_SUBTYPE>
 </PROTEIN_TYPE>
 <PARENT_ORGANISM>HUMAN</PARENT_ORGANISM>
 <LIGAND>3454, IFNAR1 INTERFERON (ALPHA, BETA AND OMEGA) RECEPTOR 1 (HOMO SAPIENS); </LIGAND>
 <GENE_ID>3440, IFNA2 INTERFERON, ALPHA 2 (HOMO SAPIENS); 3455, IFNAR2 INTERFERON (ALPHA, BETA AND OMEGA) RECEPTOR 2 (HOMO SAPIENS) </GENE_ID>
 <COMMENTS/>
 </PROTEIN>

> <COMMENTS>
FDA_ID: F014271; DrugBank DB00008; BIOPHARMA

> <CDBREGNO>
53099

> <STRUCTURE_ID>
21690

$$$$

  Symyx   06031522332D 1   1.00000     0.00000     0

 52 46  0     0  0            999 V2000
    6.1241   -5.4937    0.0000 C   0  0  0  0  0  0           0  0  0
    6.7700   -5.8688    0.0000 C   0  0  3  0  0  0           0  0  0
    6.7700   -6.6187    0.0000 C   0  0  0  0  0  0           0  0  0
    7.4116   -6.9938    0.0000 O   0  0  0  0  0  0           0  0  0
    6.1158   -6.9897    0.0000 O   0  0  0  0  0  0           0  0  0
    8.7208   -5.3460    0.0000 *   0  0  0  0  0  0           0  0  0
    4.3750   -6.5035    0.0000 *   0  0  0  0  0  0           0  0  0
   14.3881   -7.7082    0.0000 C   0  0  0  0  0  0           0  0  0
   13.2393   -7.4339    0.0000 O   0  0  0  0  0  0           0  0  0
   15.2001   -6.8504    0.0000 C   0  0  3  0  0  0           0  0  0
   16.0120   -5.9927    0.0000 C   0  0  0  0  0  0           0  0  0
   17.1608   -6.2670    0.0000 O   0  0  0  0  0  0           0  0  0
   17.9728   -5.4092    0.0000 *   0  0  0  0  0  0           0  0  0
   16.0578   -7.6624    0.0000 C   0  0  0  0  0  0           0  0  0
   17.1899   -7.3255    0.0000 O   0  0  0  0  0  0           0  0  0
   14.3423   -6.0385    0.0000 C   0  0  0  0  0  0           0  0  0
   13.2103   -6.3753    0.0000 O   0  0  0  0  0  0           0  0  0
   12.3525   -5.5634    0.0000 *   0  0  0  0  0  0           0  0  0
   18.0476   -8.1375    0.0000 C   0  0  0  0  0  0           0  0  0
   19.1797   -7.8007    0.0000 C   0  0  3  0  0  0           0  0  0
   20.0374   -8.6126    0.0000 C   0  0  0  0  0  0           0  0  0
   12.4274   -8.2916    0.0000 C   0  0  0  0  0  0           0  0  0
   11.2785   -8.0173    0.0000 C   0  0  3  0  0  0           0  0  0
   10.4666   -8.8751    0.0000 C   0  0  0  0  0  0           0  0  0
    9.3178   -8.6008    0.0000 *   0  0  0  0  0  0           0  0  0
   21.1695   -8.2758    0.0000 *   0  0  0  0  0  0           0  0  0
   19.1797   -6.6195    0.0000 *   0  0  0  0  0  0           0  0  0
   10.9728   -6.8765    0.0000 *   0  0  0  0  0  0           0  0  0
   14.4679   -9.6854    0.0000 *   0  0  0  0  0  0           0  0  0
   14.9679  -10.2792    0.0000 H   0  0  0  0  0  0           0  0  0
   13.4219  -11.5033    0.0000 *   0  0  0  0  0  0           0  0  0
   15.4664  -11.5731    0.0000 C   0  0  3  0  0  0           0  0  0
   16.5088  -11.0178    0.0000 C   0  0  0  0  0  0           0  0  0
   17.5110  -11.6429    0.0000 *   0  0  0  0  0  0           0  0  0
   14.4643  -10.9480    0.0000 C   0  0  0  0  0  0           0  0  0
   15.4664  -12.7542    0.0000 *   0  0  0  0  0  0           0  0  0
    8.2467  -13.2378    0.0000 C   0  0  0  0  0  0           0  0  0
    8.0717  -12.5795    0.0000 C   0  0  0  0  0  0           0  0  0
    7.3899  -12.5795    0.0000 C   0  0  0  0  0  0           0  0  0
    7.3899  -11.8945    0.0000 O   0  0  0  0  0  0           0  0  0
    6.1858  -11.8904    0.0000 O   0  0  0  0  0  0           0  0  0
    6.7941  -11.5444    0.0000 C   0  0  0  0  0  0           0  0  0
    6.7941   -8.9708    0.0000 C   0  0  0  0  0  0           0  0  0
    8.6074  -10.3592    0.0000 *   0  0  0  0  0  0           0  0  0
    6.7941  -10.8487    0.0000 C   0  0  3  0  0  0           0  0  0
    4.5658  -11.4376    0.0000 *   0  0  0  0  0  0           0  0  0
    6.1941  -10.4986    0.0000 C   0  0  0  0  0  0           0  0  0
   14.3038  -14.3838    0.0000 *   0  0  0  0  0  0           0  0  0
   13.0538  -13.9713    0.0000 O   0  0  0  0  0  0           0  0  0
   12.3413  -14.3838    0.0000 C   0  0  0  0  0  0           0  0  0
   11.6288  -13.9713    0.0000 C   0  0  0  0  0  0           0  0  0
   10.7038  -14.3838    0.0000 *   0  0  0  0  0  0           0  0  0
  1  2  1  0     0  0
  8  9  1  0     0  0
  8 10  1  0     0  0
 10 11  1  0     0  0
 11 12  1  0     0  0
 12 13  1  0     0  0
 10 14  1  0     0  0
 14 15  1  0     0  0
 10 16  1  0     0  0
 16 17  1  0     0  0
 17 18  1  0     0  0
 15 19  1  0     0  0
 19 20  1  0     0  0
 20 21  1  0     0  0
  9 22  1  0     0  0
 22 23  1  0     0  0
 23 24  1  0     0  0
 24 25  1  0     0  0
 21 26  1  0     0  0
 20 27  1  0     0  0
 23 28  1  0     0  0
  2  3  1  0     0  0
  3  4  1  0     0  0
 29 30  1  0     0  0
  3  5  2  0     0  0
  2  6  1  0     0  0
  1  7  1  0     0  0
 31 35  1  0     0  0
 35 32  1  0     0  0
 32 33  1  0     0  0
 33 34  1  0     0  0
 32 36  1  0     0  0
 38 37  1  0     0  0
 39 38  1  0     0  0
 40 39  1  0     0  0
 42 40  1  0     0  0
 42 41  2  0     0  0
 45 42  1  0     0  0
 45 43  1  0     0  0
 45 44  1  0     0  0
 47 45  1  0     0  0
 47 46  1  0     0  0
 49 48  1  0     0  0
 50 49  1  0     0  0
 51 50  1  0     0  0
 52 51  1  0     0  0
M  STY  5   1 SRU   2 SRU   3 SRU   4 SRU   5 SRU
M  SLB  5   1   1   2   2   3   3   4   4   5   5
M  SCN  5   1 HT    2 HT    3 HT    4 HT    5 HT
M  SAL   1  5   1   2   3   4   5
M  SBL   1  2  26  27
M  SMT   1 A
M  SDI   1  4    5.2350   -6.5749    5.2350   -5.4049
M  SDI   1  4    7.7350   -5.0049    7.7350   -6.1749
M  SAL   2 15   8   9  10  11  12  13  14  15  16  17  18  19  20  21  22
M  SAL   2 12  23  24  27  28  29  30  31  32  33  34  35  36
M  SBL   2  2  18  19
M  SMT   2 B
M  SDI   2  4    9.8850   -9.3049    9.8850   -8.1449
M  SDI   2  4   20.5850   -7.8449   20.5850   -9.0249
M  SAL   3  1  38
M  SBL   3  2  33  34
M  SMT   3 D
M  SDI   3  4    7.6947  -12.9941    7.6947  -12.1149
M  SDI   3  4    8.5781  -12.8816    7.6864  -12.8816
M  SAL   4  9  37  38  39  40  41  42  43  45  47
M  SBL   4  2  40  42
M  SMT   4 C
M  SDI   4  4    5.3281  -11.3233    5.3281  -10.5149
M  SDI   4  4    7.6447  -10.1649    7.6447  -10.9649
M  SAL   5  3  49  50  51
M  SBL   5  2  43  46
M  SMT   5 E
M  SDI   5  4   11.2066  -14.5528   11.2066  -13.7319
M  SDI   5  4   13.6566  -13.7319   13.6566  -14.5528
M  END
> <SUBSTANCE_ID>
32194

> <UNII>
59TL3WG5CO

> <DESC_PART1>
<POLYMER></POLYMER>

> <CDBREGNO>
79684

> <STRUCTURE_ID>
46087

$$$$

  Symyx   06031522332D 1   1.00000     0.00000     0

 34 30  0     0  0            999 V2000
   16.3461   -3.3121    0.0000 C   0  0  0  0  0  0           0  0  0
   17.0604   -2.9014    0.0000 C   0  0  0  0  0  0           0  0  0
   17.7795   -3.3121    0.0000 C   0  0  0  0  0  0           0  0  0
   18.4938   -2.8967    0.0000 O   0  0  0  0  0  0           0  0  0
   15.6317   -2.8967    0.0000 C   0  0  0  0  0  0           0  0  0
   14.9127   -3.3121    0.0000 C   0  0  0  0  0  0           0  0  0
   14.1938   -2.8967    0.0000 C   0  0  0  0  0  0           0  0  0
   13.4840   -3.3121    0.0000 O   0  0  0  0  0  0           0  0  0
   14.8712   -9.0648    0.0000 C   0  0  0  0  0  0           0  0  0
   15.2965   -8.3363    0.0000 C   0  0  0  0  0  0           0  0  0
   14.0254   -9.0648    0.0000 C   0  0  0  0  0  0           0  0  0
   13.6048   -8.3309    0.0000 O   0  0  0  0  0  0           0  0  0
   13.6001   -9.7959    0.0000 O   0  0  0  0  0  0           0  0  0
   16.1424   -8.3363    0.0000 C   0  0  0  0  0  0           0  0  0
   16.5677   -7.6106    0.0000 C   0  0  0  0  0  0           0  0  0
   17.4135   -7.6106    0.0000 C   0  0  0  0  0  0           0  0  0
   17.8341   -8.3445    0.0000 O   0  0  0  0  0  0           0  0  0
   17.8388   -6.8794    0.0000 O   0  0  0  0  0  0           0  0  0
    5.8976   -2.8206    0.0000 O   0  0  0  0  0  0           0  0  0
    6.6136   -2.4072    0.0000 C   0  0  0  0  0  0           0  0  0
    7.3296   -2.8206    0.0000 C   0  0  3  0  0  0           0  0  0
    8.0456   -2.4072    0.0000 C   0  0  0  0  0  0           0  0  0
    8.7616   -2.8206    0.0000 O   0  0  0  0  0  0           0  0  0
    6.9162   -3.5366    0.0000 C   0  0  0  0  0  0           0  0  0
    7.7429   -3.5366    0.0000 C   0  0  0  0  0  0           0  0  0
    7.4758   -8.4733    0.0000 C   0  0  0  0  0  0           0  0  0
    6.6491   -8.4733    0.0000 C   0  0  0  0  0  0           0  0  0
    8.4945   -7.7573    0.0000 O   0  0  0  0  0  0           0  0  0
    7.7785   -7.3439    0.0000 C   0  0  0  0  0  0           0  0  0
    7.0625   -7.7573    0.0000 C   0  0  3  0  0  0           0  0  0
    6.3465   -7.3439    0.0000 C   0  0  0  0  0  0           0  0  0
    5.6305   -7.7573    0.0000 O   0  0  0  0  0  0           0  0  0
    8.3750   -8.6563    0.0000 O   0  0  0  0  0  0           0  0  0
    6.6491   -9.3001    0.0000 C   0  0  0  0  0  0           0  0  0
  1  2  1  0     0  0
  2  3  1  0     0  0
  3  4  1  0     0  0
  1  5  1  0     0  0
  5  6  1  0     0  0
  7  6  1  0     0  0
  7  8  1  0     0  0
  9 10  1  0     0  0
  9 11  1  0     0  0
 11 12  2  0     0  0
 11 13  1  0     0  0
 10 14  1  0     0  0
 14 15  1  0     0  0
 15 16  1  0     0  0
 16 17  2  0     0  0
 16 18  1  0     0  0
 19 20  1  0     0  0
 20 21  1  0     0  0
 21 22  1  0     0  0
 22 23  1  0     0  0
 21 24  1  0     0  0
 21 25  1  0     0  0
 30 26  1  0     0  0
 30 27  1  0     0  0
 29 28  1  0     0  0
 30 29  1  0     0  0
 31 30  1  0     0  0
 32 31  1  0     0  0
 26 33  1  0     0  0
 27 34  1  0     0  0
M  STY  4   1 MON   2 MON   3 MON   4 MON
M  SLB  4   1   1   2   2   3   3   4   4
M  SAL   1  8   1   2   3   4   5   6   7   8
M  SDI   1  4   12.4114   -3.9395   12.4114   -2.2692
M  SDI   1  4   19.5680   -2.2692   19.5680   -3.9395
M  SAL   2  7  19  20  21  22  23  24  25
M  SDI   2  4    4.8250   -4.2601    4.8250   -1.8927
M  SDI   2  4    9.8358   -1.8927    9.8358   -4.2601
M  SAL   3 10   9  10  11  12  13  14  15  16  17  18
M  SDI   3  4   12.5275  -10.4233   12.5275   -6.2519
M  SDI   3  4   18.9130   -6.2519   18.9130  -10.4233
M  SAL   4  9  26  27  28  29  30  31  32  33  34
M  SDI   4  4    4.5580  -10.0236    4.5580   -6.8294
M  SDI   4  4    9.5687   -6.8294    9.5687  -10.0236
M  END
> <SUBSTANCE_ID>
74121

> <UNII>
0841698D2F

> <DESC_PART1>
<POLYMER></POLYMER>

> <COMMENTS>
Brookfield Viscosity@25?C       100000 cps

> <CDBREGNO>
73207

> <STRUCTURE_ID>
40063

$$$$

  Symyx   06031522332D 1   1.00000     0.00000     0

  6  5  0     0  0            999 V2000
    4.1356   -1.9331    0.0000 O   0  0  0  0  0  0           0  0  0
    4.1044   -3.1361    0.0000 Se  0  0  0  0  0  0           0  0  0
    3.2397   -3.4391    0.0000 O   0  0  0  0  0  0           0  0  0
    2.5391   -3.4391    0.0000 *   0  0  0  0  0  0           0  0  0
    5.0099   -3.4696    0.0000 O   0  0  0  0  0  0           0  0  0
    5.8167   -3.1195    0.0000 *   0  0  0  0  0  0           0  0  0
  2  1  2  0     0  0
  2  3  1  0     0  0
  3  4  1  0     0  0
  2  5  1  0     0  0
  5  6  1  0     0  0
M  STY  1   1 SRU
M  SLB  1   1   1
M  SCN  1   1 HT
M  SAL   1  3   1   2   3
M  SBL   1  2   3   4
M  SMT   1 A
M  SDI   1  4    2.8500   -3.7800    2.8500   -3.0700
M  SDI   1  4    4.5400   -2.9200    4.5400   -3.6400
M  END
> <SUBSTANCE_ID>
39816

> <UNII>
9N3UK29E57

> <DESC_PART1>
<POLYMER></POLYMER>

> <CDBREGNO>
76001

> <STRUCTURE_ID>
42766

$$$$

  Symyx   06031522332D 1   1.00000     0.00000     0

 21 21  0     0  0            999 V2000
   11.6422   -8.4186    0.0000 C   0  0  0  0  0  0           0  0  0
   12.6747   -9.0052    0.0000 C   0  0  0  0  0  0           0  0  0
   13.6940   -8.4135    0.0000 C   0  0  0  0  0  0           0  0  0
   13.6940   -7.2298    0.0000 C   0  0  0  0  0  0           0  0  0
   12.6423   -6.6452    0.0000 C   0  0  0  0  0  0           0  0  0
   11.6422   -7.2449    0.0000 C   0  0  0  0  0  0           0  0  0
   12.6747  -10.1904    0.0000 O   0  0  0  0  0  0           0  0  0
   12.6423   -5.4673    0.0000 C   0  0  3  0  0  0           0  0  0
   13.6642   -4.8702    0.0000 C   0  0  0  0  0  0           0  0  0
   11.4604   -5.4673    0.0000 C   0  0  0  0  0  0           0  0  0
   12.0359   -4.4450    0.0000 C   0  0  0  0  0  0           0  0  0
   10.6163   -6.6635    0.0000 C   0  0  0  0  0  0           0  0  0
    9.5906   -7.2487    0.0000 *   0  0  0  0  0  0           0  0  0
   14.7176   -8.9990    0.0000 *   0  0  0  0  0  0           0  0  0
   14.6893   -5.4531    0.0000 C   0  0  3  0  0  0           0  0  0
   14.6893   -6.6322    0.0000 C   0  0  0  0  0  0           0  0  0
   15.7066   -4.8568    0.0000 C   0  0  0  0  0  0           0  0  0
   15.7072   -6.0404    0.0000 C   0  0  0  0  0  0           0  0  0
   11.6447  -10.7779    0.0000 C   0  0  0  0  0  0           0  0  0
   10.6197  -10.1862    0.0000 C   0  0  0  0  0  0           0  0  0
    9.5947  -10.7737    0.0000 O   0  0  0  0  0  0           0  0  0
  2  7  1  0     0  0
  2  3  1  0     0  0
  6 12  1  0     0  0
  5  8  1  0     0  0
 12 13  1  0     0  0
  8  9  1  0     0  0
  3 14  1  0     0  0
  3  4  2  0     0  0
  9 15  1  0     0  0
  4  5  1  0     0  0
 15 16  1  0     0  0
  1  2  2  0     0  0
 15 17  1  0     0  0
  5  6  2  0     0  0
 15 18  1  0     0  0
  8 10  1  0     0  0
  7 19  1  0     0  0
  6  1  1  0     0  0
 19 20  1  0     0  0
  8 11  1  0     0  0
 20 21  1  0     0  0
M  STY  2   1 SRU   2 SRU
M  SLB  2   1   1   2   2
M  SCN  2   1 HT    2 HT
M  SAL   1 15   1   2   3   4   5   6   7   8   9  10  11  12  15  16  17
M  SAL   1  4  18  19  20  21
M  SBL   1  2   5   7
M  SMT   1 A
M  SDI   1  4    9.1168   -7.4569    9.1168   -5.6754
M  SDI   1  4   15.3285   -8.4344   15.3285  -10.2159
M  SAL   2  3   7  19  20
M  SBL   2  2   1  21
M  SMT   2 B
M  SDI   2  4   10.2189  -10.8837   10.2189  -10.0437
M  SDI   2  4   12.2489   -9.4737   13.0689   -9.4737
M  END
> <SUBSTANCE_ID>
11862

> <UNII>
Y27PUL9H56

> <DESC_PART1>
<SUBSTANCE>
 <SUBSTANCE_ID/>
<SINGLE_SUBSTANCE>
<STRUCTURE>
 <STRUCTURAL_REPRESENTATION_TYPE/>
 <STRUCTURAL_REPRESENTATION/>
 <STEREOCHEMISTRY/>
 <OPTICAL_ACTIVITY/>
 <PUBLIC_DOMAIN/>
<ISOTOPE_GROUP>
 <NUCLIDE_ID/>
 <NUCLIDE_NAME/>
 <SUBSTITUTION_TYPE/>
 </ISOTOPE_GROUP>
 </STRUCTURE>
<ELEMENT_TYPE>
<POLYMER>
 <POLYMER_TYPE>COPOLYMER</POLYMER_TYPE>
 <MONOMER_AMOUNT_TYPE>MOLE</MONOMER_AMOUNT_TYPE>
<MONOMER_GROUP>
 <MONOMER_LABEL>A</MONOMER_LABEL>
 <INCHI>InChI=1S/C14H22O/c1-13(2,3)10-14(4,5)11-6-8-12(15)9-7-11/h6-9,15H,10H2,1-5H3</INCHI>
 <UNII/>
 <NAME>P-(1,1,3,3-TETRAMETHYLBUTYL)PHENOL </NAME>
<AMOUNT>
 <AVERAGE/>
 <LOW_LIMIT/>
 <HIGH_LIMIT>8</HIGH_LIMIT>
 <UNIT/>
 <NON_NUMERIC_VALUE/>
 </AMOUNT>
<MONOMER_RESIDUE_GROUP>
 <RESIDUE_LABEL>A1</RESIDUE_LABEL>
 <RESIDUE_INCHI>InChI=1S/C14H19He3O/c1-13(2,3)8-14(4,5)9-6-10(15)12(18-17)11(16)7-9/h6-7H,8H2,1-5H3/i15-1,16+0,17+1</RESIDUE_INCHI>
 </MONOMER_RESIDUE_GROUP>
 </MONOMER_GROUP>
<MONOMER_GROUP>
 <MONOMER_LABEL>B</MONOMER_LABEL>
 <INCHI>InChI=1S/CH2O/c1-2/h1H2</INCHI>
 <UNII/>
 <NAME>FORMALDEHYDE </NAME>
<AMOUNT>
 <AVERAGE/>
 <LOW_LIMIT/>
 <HIGH_LIMIT/>
 <UNIT/>
 <NON_NUMERIC_VALUE/>
 </AMOUNT>
<MONOMER_RESIDUE_GROUP>
 <RESIDUE_LABEL>B1</RESIDUE_LABEL>
 <RESIDUE_INCHI>InChI=1S/CH2He2/c2-1-3/h1H2/i2-1,3+0</RESIDUE_INCHI>
 </MONOMER_RESIDUE_GROUP>
 </MONOMER_GROUP>
<MONOMER_GROUP>
 <MONOMER_LABEL>C</MONOMER_LABEL>
 <INCHI>InChI=1S/C2H4O/c1-2-3-1/h1-2H2</INCHI>
 <UNII>JJH7GNN18P</UNII>
 <NAME>ETHYLENE OXIDE</NAME>
<AMOUNT>
 <AVERAGE/>
 <LOW_LIMIT/>
 <HIGH_LIMIT/>
 <UNIT/>
 <NON_NUMERIC_VALUE/>
 </AMOUNT>
<MONOMER_RESIDUE_GROUP>
 <RESIDUE_LABEL>C1</RESIDUE_LABEL>
 <RESIDUE_INCHI>InChI=1S/C2H4He2O/c3-1-2-5-4/h1-2H2/i3-1,4+0</RESIDUE_INCHI>
 </MONOMER_RESIDUE_GROUP>
 </MONOMER_GROUP>
<MOIETY_FRAGMENT_GROUP>
<MOIETY>
 <MOIETY_LABEL/>
 <MOIETY_INCHI/>
 <MOIETY_UNII/>
 <MOIETY_NAME/>
 </MOIETY>
<FRAGMENT>
 <FRAGMENT_LABEL/>
 <FRAGMENT_INCHI/>
 <FRAGMENT_UNII/>
 <FRAGMENT_NAME/>
 </FRAGMENT>
<AMOUNT>
 <AVERAGE/>
 <LOW_LIMIT/>
 <HIGH_LIMIT/>
 <UNIT/>
 <NON_NUMERIC_VALUE/>
 </AMOUNT>
 </MOIETY_FRAGMENT_GROUP>
<POLYMERIZATION_AREA_GROUP>
<!--REGULAR POLYMERIZATION WITH SAME PATTERN OR STATISTICAL WITH SAME MONOMER DISTRIBUTION
 -->
 <POLYMERIZATION_AREA_NUMBER>1</POLYMERIZATION_AREA_NUMBER>
 <POLYMERIZATION_TYPE>REGULAR</POLYMERIZATION_TYPE>
 <POLYMERIZATION_GEOMETRY>LINEAR</POLYMERIZATION_GEOMETRY>
<RESIDUES>
<RESIDUE_GROUP>
 <RESIDUE_LABEL>A1</RESIDUE_LABEL>
<AMOUNT>
 <AVERAGE/>
 <LOW_LIMIT/>
 <HIGH_LIMIT/>
 <UNIT/>
 <NON_NUMERIC_VALUE/>
 </AMOUNT>
 </RESIDUE_GROUP>
<RESIDUE_GROUP>
 <RESIDUE_LABEL>B1</RESIDUE_LABEL>
<AMOUNT>
 <AVERAGE/>
 <LOW_LIMIT/>
 <HIGH_LIMIT/>
 <UNIT/>
 <NON_NUMERIC_VALUE/>
 </AMOUNT>
 </RESIDUE_GROUP>
 </RESIDUES>
<ALLOWED_RESIDUE_CONNECTIVITIES>
 <CONNECTIVITY>A1_3-4_B1</CONNECTIVITY>
 <CONNECTIVITY>B1_3-4_A1</CONNECTIVITY>
 </ALLOWED_RESIDUE_CONNECTIVITIES>
<BRANCHING>
<BRANCH_GROUP>
 <BRANCHING_RESIDUE>A1</BRANCHING_RESIDUE>
 <BRANCHING_POLYMERIZATION_AREA>2</BRANCHING_POLYMERIZATION_AREA>
 <CONNECTIVITY>A1_5-3_C1</CONNECTIVITY>
<AMOUNT>
 <AVERAGE>100</AVERAGE>
 <LOW_LIMIT>100</LOW_LIMIT>
 <HIGH_LIMIT>100</HIGH_LIMIT>
 <UNIT>PERCENT</UNIT>
 <NON_NUMERIC_VALUE/>
 </AMOUNT>
 </BRANCH_GROUP>
 </BRANCHING>
<LINEAR_POLYMERIZATION>
<REGULAR_POLYMERIZATION>
 <SRU>3_A1_4-3_B1_4</SRU>
<POLYMERIZATION_DEGREE>
 <AVERAGE/>
 <LOW_LIMIT/>
 <HIGH_LIMIT>8</HIGH_LIMIT>
 </POLYMERIZATION_DEGREE>
 </REGULAR_POLYMERIZATION>
<STATISTICAL_POLYMERIZATION>
 <SRUS/>
<POLYMERIZATION_DEGREE>
 <AVERAGE/>
 <LOW_LIMIT/>
 <HIGH_LIMIT/>
 </POLYMERIZATION_DEGREE>
 </STATISTICAL_POLYMERIZATION>
 </LINEAR_POLYMERIZATION>
<NON-LINEAR_POLYMERIZATION>
<REGULAR_POLYMERIZATION>
 <SRU/>
<POLYMERIZATION_DEGREE>
 <AVERAGE/>
 <LOW_LIMIT/>
 <HIGH_LIMIT/>
 </POLYMERIZATION_DEGREE>
 </REGULAR_POLYMERIZATION>
<STATISTICAL_POLYMERIZATION>
 <SRUS/>
<

> <DESC_PART2>
POLYMERIZATION_DEGREE>
 <AVERAGE/>
 <LOW_LIMIT/>
 <HIGH_LIMIT/>
 </POLYMERIZATION_DEGREE>
 </STATISTICAL_POLYMERIZATION>
 </NON-LINEAR_POLYMERIZATION>
<MOLECULAR_WEIGHT>
 <MOLECULAR_WEIGHT_TYPE/>
 <MOLECULAR_WEIGHT_METHOD/>
<AMOUNT>
 <AVERAGE/>
 <LOW_LIMIT/>
 <HIGH_LIMIT/>
 <UNIT/>
 <NON_NUMERIC_VALUE/>
 </AMOUNT>
 </MOLECULAR_WEIGHT>
 </POLYMERIZATION_AREA_GROUP>
<POLYMERIZATION_AREA_GROUP>
<!--REGULAR POLYMERIZATION WITH SAME PATTERN OR STATISTICAL WITH SAME MONOMER DISTRIBUTION
 -->
 <POLYMERIZATION_AREA_NUMBER>2</POLYMERIZATION_AREA_NUMBER>
 <POLYMERIZATION_TYPE>REGULAR</POLYMERIZATION_TYPE>
 <POLYMERIZATION_GEOMETRY>LINEAR</POLYMERIZATION_GEOMETRY>
<RESIDUES>
<RESIDUE_GROUP>
 <RESIDUE_LABEL>C1</RESIDUE_LABEL>
<AMOUNT>
 <AVERAGE/>
 <LOW_LIMIT>7</LOW_LIMIT>
 <HIGH_LIMIT>9</HIGH_LIMIT>
 <UNIT>MOL</UNIT>
 <NON_NUMERIC_VALUE/>
 </AMOUNT>
 </RESIDUE_GROUP>
 </RESIDUES>
<ALLOWED_RESIDUE_CONNECTIVITIES>
 <CONNECTIVITY>C1_3-4_C1</CONNECTIVITY>
 </ALLOWED_RESIDUE_CONNECTIVITIES>
<BRANCHING>
<BRANCH_GROUP>
 <BRANCHING_RESIDUE/>
 <BRANCHING_POLYMERIZATION_AREA/>
 <CONNECTIVITY/>
<AMOUNT>
 <AVERAGE/>
 <LOW_LIMIT/>
 <HIGH_LIMIT/>
 <UNIT/>
 <NON_NUMERIC_VALUE/>
 </AMOUNT>
 </BRANCH_GROUP>
 </BRANCHING>
<LINEAR_POLYMERIZATION>
<REGULAR_POLYMERIZATION>
 <SRU>3_C1_4</SRU>
<POLYMERIZATION_DEGREE>
 <AVERAGE/>
 <LOW_LIMIT>7</LOW_LIMIT>
 <HIGH_LIMIT>9</HIGH_LIMIT>
 </POLYMERIZATION_DEGREE>
 </REGULAR_POLYMERIZATION>
<STATISTICAL_POLYMERIZATION>
 <SRUS/>
<POLYMERIZATION_DEGREE>
 <AVERAGE/>
 <LOW_LIMIT/>
 <HIGH_LIMIT/>
 </POLYMERIZATION_DEGREE>
 </STATISTICAL_POLYMERIZATION>
 </LINEAR_POLYMERIZATION>
<NON-LINEAR_POLYMERIZATION>
<REGULAR_POLYMERIZATION>
 <SRU/>
<POLYMERIZATION_DEGREE>
 <AVERAGE/>
 <LOW_LIMIT/>
 <HIGH_LIMIT/>
 </POLYMERIZATION_DEGREE>
 </REGULAR_POLYMERIZATION>
<STATISTICAL_POLYMERIZATION>
 <SRUS/>
<POLYMERIZATION_DEGREE>
 <AVERAGE/>
 <LOW_LIMIT/>
 <HIGH_LIMIT/>
 </POLYMERIZATION_DEGREE>
 </STATISTICAL_POLYMERIZATION>
 </NON-LINEAR_POLYMERIZATION>
<MOLECULAR_WEIGHT>
 <MOLECULAR_WEIGHT_TYPE/>
 <MOLECULAR_WEIGHT_METHOD/>
<AMOUNT>
 <AVERAGE/>
 <LOW_LIMIT/>
 <HIGH_LIMIT/>
 <UNIT/>
 <NON_NUMERIC_VALUE/>
 </AMOUNT>
 </MOLECULAR_WEIGHT>
 </POLYMERIZATION_AREA_GROUP>
<MOLECULAR_WEIGHT>
 <MOLECULAR_WEIGHT_TYPE/>
 <MOLECULAR_WEIGHT_METHOD/>
<AMOUNT>
 <AVERAGE/>
 <LOW_LIMIT/>
 <HIGH_LIMIT/>
 <UNIT/>
 <NON_NUMERIC_VALUE/>
 </AMOUNT>
 </MOLECULAR_WEIGHT>
<PROPERTY_GROUP>
 <PROPERTY_TYPE/>
 <PROPERTY/>
<PROPERTY_DESCRIPTION>
 <SUBSTANCE_NAME/>
 <SUBSTANCE_ID/>
 <AMOUNT_TYPE/>
<AMOUNT>
 <AVERAGE/>
 <LOW_LIMIT/>
 <HIGH_LIMIT/>
 <UNIT/>
 <NON_NUMERIC_VALUE/>
 </AMOUNT>
 </PROPERTY_DESCRIPTION>
 </PROPERTY_GROUP>
<SOURCE_MATERIAL>
 <SOURCE_MATERIAL_CLASS/>
 <SOURCE_MATERIAL_TYPE/>
 <SOURCE_MATERIAL_STATE/>
 <ORGANISM_NAME_ID/>
 <ORGANISM_NAME/>
 <DEVELOPMENTAL_STAGE/>
<PART_GROUP>
 <PART/>
 <PART_LOCATION/>
 </PART_GROUP>
<FRACTION>
 <MATERIAL_TYPE/>
 <FRACTION/>
 </FRACTION>
 </SOURCE_MATERIAL>
 <PUBLIC_DOMAIN/>
 <COMMENTS/>
 </POLYMER>
 </ELEMENT_TYPE>
<REFERENCE_SOURCE_GROUP>
 <PUBLIC_DOMAIN/>
 <REFERENCE_SOURCE_TYPE/>
 <REFERENCE_SOURCE_CLASS/>
 <REFERENCE_SOURCE_IDENTIFIER/>
 <REFERENCE_SOURCE_CITATION/>
 </REFERENCE_SOURCE_GROUP>
 </SINGLE_SUBSTANCE>
 </SUBSTANCE>

> <COMMENTS>
FDA_ID: F011883   POLYMER

> <CDBREGNO>
74722

> <STRUCTURE_ID>
41507

$$$$

  Symyx   06031522332D 1   1.00000     0.00000     0

 41 40  0     0  0            999 V2000
   10.5030   -8.3539    0.0000 C   0  0  0  0  0  0           0  0  0
   10.9844   -9.0217    0.0000 O   0  0  0  0  0  0           0  0  0
   10.5030   -9.6894    0.0000 C   0  0  0  0  0  0           0  0  0
    9.7171   -9.4370    0.0000 C   0  0  0  0  0  0           0  0  0
    9.0027   -9.8522    0.0000 C   0  0  0  0  0  0           0  0  0
    8.2837   -9.4370    0.0000 C   0  0  0  0  0  0           0  0  0
    8.2837   -8.6063    0.0000 C   0  0  0  0  0  0           0  0  0
    9.0027   -8.1956    0.0000 C   0  0  0  0  0  0           0  0  0
    9.7171   -8.6063    0.0000 C   0  0  0  0  0  0           0  0  0
   10.7601  -10.4754    0.0000 O   0  0  0  0  0  0           0  0  0
   10.7601   -7.5725    0.0000 O   0  0  0  0  0  0           0  0  0
   17.9173   -4.4290    0.0000 C   0  0  0  0  0  0           0  0  0
   18.6316   -4.0183    0.0000 C   0  0  0  0  0  0           0  0  0
   19.3507   -4.4290    0.0000 C   0  0  0  0  0  0           0  0  0
   20.0650   -4.0136    0.0000 O   0  0  0  0  0  0           0  0  0
   17.2029   -4.0136    0.0000 C   0  0  0  0  0  0           0  0  0
   16.4839   -4.4290    0.0000 C   0  0  0  0  0  0           0  0  0
   15.7650   -4.0136    0.0000 C   0  0  0  0  0  0           0  0  0
   15.0552   -4.4290    0.0000 O   0  0  0  0  0  0           0  0  0
    7.4623   -9.6571    0.0000 C   0  0  0  0  0  0           0  0  0
    7.0288   -8.9061    0.0000 O   0  0  0  0  0  0           0  0  0
    7.5239   -8.2804    0.0000 C   0  0  0  0  0  0           0  0  0
    7.3099   -7.4818    0.0000 O   0  0  0  0  0  0           0  0  0
    7.0490  -10.3731    0.0000 O   0  0  0  0  0  0           0  0  0
   16.4424  -10.1844    0.0000 C   0  0  0  0  0  0           0  0  0
   16.8677   -9.4532    0.0000 C   0  0  0  0  0  0           0  0  0
   15.5966  -10.1817    0.0000 C   0  0  0  0  0  0           0  0  0
   15.1760   -9.4478    0.0000 O   0  0  0  0  0  0           0  0  0
   15.1713  -10.9128    0.0000 O   0  0  0  0  0  0           0  0  0
   17.7136   -9.4560    0.0000 C   0  0  0  0  0  0           0  0  0
   18.1389   -8.7248    0.0000 C   0  0  0  0  0  0           0  0  0
   18.9847   -8.7275    0.0000 C   0  0  0  0  0  0           0  0  0
   19.4053   -9.4614    0.0000 O   0  0  0  0  0  0           0  0  0
   19.4100   -7.9963    0.0000 O   0  0  0  0  0  0           0  0  0
    7.4688   -3.9375    0.0000 O   0  0  0  0  0  0           0  0  0
    8.1848   -3.5241    0.0000 C   0  0  0  0  0  0           0  0  0
    8.9008   -3.9375    0.0000 C   0  0  3  0  0  0           0  0  0
    9.6168   -3.5241    0.0000 C   0  0  0  0  0  0           0  0  0
   10.3328   -3.9375    0.0000 O   0  0  0  0  0  0           0  0  0
    8.4874   -4.6535    0.0000 C   0  0  0  0  0  0           0  0  0
    9.3141   -4.6535    0.0000 C   0  0  0  0  0  0           0  0  0
  1  2  1  0     0  0
  2  3  1  0     0  0
  3  4  1  0     0  0
  4  5  1  0     0  0
  5  6  2  0     0  0
  6  7  1  0     0  0
  7  8  2  0     0  0
  8  9  1  0     0  0
  4  9  2  0     0  0
  1  9  1  0     0  0
  3 10  2  0     0  0
  1 11  2  0     0  0
 12 13  1  0     0  0
 13 14  1  0     0  0
 14 15  1  0     0  0
 12 16  1  0     0  0
 16 17  1  0     0  0
 18 17  1  0     0  0
 18 19  1  0     0  0
 21 22  1  0     0  0
 20 21  1  0     0  0
  6 20  1  0     0  0
  7 22  1  0     0  0
 22 23  2  0     0  0
 20 24  2  0     0  0
 25 26  1  0     0  0
 25 27  1  0     0  0
 27 28  2  0     0  0
 27 29  1  0     0  0
 26 30  1  0     0  0
 30 31  1  0     0  0
 31 32  1  0     0  0
 32 33  2  0     0  0
 32 34  1  0     0  0
 35 36  1  0     0  0
 36 37  1  0     0  0
 37 38  1  0     0  0
 38 39  1  0     0  0
 37 40  1  0     0  0
 37 41  1  0     0  0
M  STY  4   1 MON   2 MON   3 MON   4 MON
M  SLB  4   1   1   2   2   3   3   4   4
M  SAL   1  8  12  13  14  15  16  17  18  19
M  SDI   1  4   13.9826   -5.0564   13.9826   -3.3861
M  SDI   1  4   21.1392   -3.3861   21.1392   -5.0564
M  SAL   2 15   1   2   3   4   5   6   7   8   9  10  11  20  21  22  23
M  SAL   2  1  24
M  SDI   2  4    6.3645  -11.1028    6.3645   -6.8543
M  SDI   2  4   11.6487   -6.8543   11.6487  -11.1028
M  SAL   3 10  25  26  27  28  29  30  31  32  33  34
M  SDI   3  4   14.0987  -11.5403   14.0987   -7.3689
M  SDI   3  4   20.4843   -7.3689   20.4843  -11.5403
M  SAL   4  7  35  36  37  38  39  40  41
M  SDI   4  4    6.3962   -5.3771    6.3962   -3.0104
M  SDI   4  4   11.4070   -3.0104   11.4070   -5.3771
M  END
> <SUBSTANCE_ID>
74007

> <UNII>
212N9O2MMZ

> <DESC_PART1>
<POLYMER></POLYMER>

> <COMMENTS>
Brookfield Viscosity@90?C       1200 cps

> <CDBREGNO>
73181

> <STRUCTURE_ID>
40037

$$$$

  Symyx   06031522332D 1   1.00000     0.00000     0

  7  6  0     0  0            999 V2000
   -1.0207   -3.4633    0.0000 C   0  0  0  0  0  0           0  0  0
   -0.2954   -3.8601    0.0000 C   0  0  0  0  0  0           0  0  0
    0.4109   -3.4303    0.0000 O   0  0  0  0  0  0           0  0  0
    1.1363   -3.8271    0.0000 C   0  0  0  0  0  0           0  0  0
    1.8426   -3.3973    0.0000 C   0  0  0  0  0  0           0  0  0
    2.5679   -3.7941    0.0000 *   0  0  0  0  0  0           0  0  0
   -1.7844   -3.8915    0.0000 O   0  0  0  0  0  0           0  0  0
  1  2  1  0     0  0
  2  3  1  0     0  0
  3  4  1  0     0  0
  4  5  1  0     0  0
  5  6  1  0     0  0
  1  7  1  0     0  0
M  STY  1   1 SRU
M  SLB  1   1   1
M  SCN  1   1 HT
M  SAL   1  3   3   4   5
M  SBL   1  2   2   5
M  SMT   1 A
M  SDI   1  4    0.0500   -4.0600    0.0500   -3.2200
M  SDI   1  4    2.2000   -3.1700    2.2000   -4.0100
M  END
> <SUBSTANCE_ID>
100252

> <UNII>
PFH14G629N

> <DESC_PART1>
<POLYMER></POLYMER>

> <CDBREGNO>
78685

> <STRUCTURE_ID>
45373

$$$$

  Symyx   06031522332D 1   1.00000     0.00000     0

 10 10  0     0  0            999 V2000
   -1.6842   -3.1455    0.0000 O   0  0  0  0  0  0           0  0  0
   -0.1112   -4.2884    0.0000 C   0  0  0  0  0  0           0  0  0
    1.6651   -3.4975    0.0000 C   0  0  0  0  0  0           0  0  0
    3.2381   -4.6404    0.0000 O   0  0  0  0  0  0           0  0  0
    5.0143   -3.8496    0.0000 C   0  0  0  0  0  0           0  0  0
    6.5874   -4.9924    0.0000 C   0  0  3  0  0  0           0  0  0
    6.5874   -6.9368    0.0000 C   0  0  0  0  0  0           0  0  0
    8.4366   -7.5376    0.0000 C   0  0  0  0  0  0           0  0  0
    9.5794   -5.9646    0.0000 C   0  0  0  0  0  0           0  0  0
    8.4366   -4.3916    0.0000 O   0  0  0  0  0  0           0  0  0
  2  1  1  0     0  0
  3  2  1  0     0  0
  4  3  1  0     0  0
  5  4  1  0     0  0
  6  5  1  0     0  0
  7  6  1  0     0  0
  8  7  1  0     0  0
  9  8  1  0     0  0
 10  9  1  0     0  0
  6 10  1  0     0  0
M  STY  1   1 SRU
M  SLB  1   1   1
M  SCN  1   1 HT
M  SAL   1  3   2   3   4
M  SBL   1  2   1   4
M  SMT   1 A
M  SDI   1  4   -0.9000   -4.6800   -0.9000   -2.7400
M  SDI   1  4    4.1200   -3.2700    4.1200   -5.2100
M  END
> <SUBSTANCE_ID>
55765

> <UNII>
YZC5LZ8BUB

> <DESC_PART1>
<POLYMER>
 <POLYMER_CLASS>HOMOPOLYMER, SUBSTITUTED</POLYMER_CLASS>
 <POLYMER_GEOMETRY>LINEAR</POLYMER_GEOMETRY>
 <COPOLYMER_SEQUENCE_TYPE>HEAD-TAIL</COPOLYMER_SEQUENCE_TYPE>
<MONOMER_DESCRIPTION>
 <NUMBER_OF_MONOMERS>1</NUMBER_OF_MONOMERS>
 <MONOMER_AMOUNT_TYPE>MOLE RATIO</MONOMER_AMOUNT_TYPE>
<MONOMER_GROUP>
 <MONOMER_ID>JJH7GNN18P</MONOMER_ID>
 <MONOMER_NAME>ETHYLENE OXIDE</MONOMER_NAME>
<AMOUNT>
 <AVERAGE>1.5</AVERAGE>
 <LOW_LIMIT>1</LOW_LIMIT>
 <HIGH_LIMIT>2</HIGH_LIMIT>
 <UNIT/>
 <NON_NUMERIC_VALUE/>
 </AMOUNT>
 </MONOMER_GROUP>
 </MONOMER_DESCRIPTION>
<STRUCTURAL_REPEAT_UNIT>
 <NUMBER_OF_STRUCTURAL_REPEAT_UNITS>1</NUMBER_OF_STRUCTURAL_REPEAT_UNITS>
 <STRUCTURAL_REPEAT_UNIT_AMOUNT_TYPE>MOLE RATIO</STRUCTURAL_REPEAT_UNIT_AMOUNT_TYPE>
<STRUCTURAL_REPEAT_UNIT_GROUP>
 <ORIENTATION_OF_POLYMERIZATION>HEAD-TAIL</ORIENTATION_OF_POLYMERIZATION>
 <STRUCTURAL_REPEAT_UNIT>A</STRUCTURAL_REPEAT_UNIT>
<AMOUNT>
 <AVERAGE>1.5</AVERAGE>
 <LOW_LIMIT>1</LOW_LIMIT>
 <HIGH_LIMIT>2</HIGH_LIMIT>
 <UNIT/>
 <NON_NUMERIC_VALUE/>
 </AMOUNT>
<DEGREE_POLYMERIZATION>
<AMOUNT>
 <AVERAGE>2</AVERAGE>
 <LOW_LIMIT>1</LOW_LIMIT>
 <HIGH_LIMIT>2</HIGH_LIMIT>
 <UNIT/>
 <NON_NUMERIC_VALUE/>
 </AMOUNT>
 </DEGREE_POLYMERIZATION>
 </STRUCTURAL_REPEAT_UNIT_GROUP>
 </STRUCTURAL_REPEAT_UNIT>
<MOLECULAR_WEIGHT>
 <MOLECULAR_WEIGHT_TYPE>CALCULATED</MOLECULAR_WEIGHT_TYPE>
 <MOLECULAR_WEIGHT_METHOD/>
<AMOUNT>
 <AVERAGE/>
 <LOW_LIMIT/>
 <HIGH_LIMIT/>
 <UNIT/>
 <NON_NUMERIC_VALUE/>
 </AMOUNT>
 </MOLECULAR_WEIGHT>
<PROPERTY_GROUP>
 <PROPERTY_TYPE/>
 <PROPERTY/>
 <SUBSTANCE_NAME/>
 <SUBSTANCE_ID/>
 <AMOUNT_TYPE/>
<AMOUNT>
 <AVERAGE/>
 <LOW_LIMIT/>
 <HIGH_LIMIT/>
 <UNIT/>
 <NON_NUMERIC_VALUE/>
 </AMOUNT>
 </PROPERTY_GROUP>
<MODIFICATION_GROUP>
 <MODIFICATION_TYPE/>
<PHYSICAL_MODIFICATION>
 <ROLE/>
 <NUMBER_OF_PARAMETERS/>
<PARAMETER_GROUP>
 <PARAMETER/>
<AMOUNT>
 <AVERAGE/>
 <LOW_LIMIT/>
 <HIGH_LIMIT/>
 <UNIT/>
 <NON_NUMERIC_VALUE/>
 </AMOUNT>
 </PARAMETER_GROUP>
 </PHYSICAL_MODIFICATION>
<STRUCTURAL_MODIFICATION>
 <STRUCTURAL_MODIFICATION_TYPE/>
<MOIETY>
 <ROLE/>
 <MOIETY_NAME/>
 <MOIETY_ID/>
 <AMOUNT_TYPE/>
<AMOUNT>
 <AVERAGE/>
 <LOW_LIMIT/>
 <HIGH_LIMIT/>
 <UNIT/>
 <NON_NUMERIC_VALUE/>
 </AMOUNT>
 </MOIETY>
<MOLECULAR_FRAGMENT>
 <ROLE/>
 <MOLECULAR_FRAGMENT_NAME/>
 <MOLECULAR_FRAGMENT_ID/>
 <AMOUNT_TYPE/>
<AMOUNT>
 <AVERAGE/>
 <LOW_LIMIT/>
 <HIGH_LIMIT/>
 <UNIT/>
 <NON_NUMERIC_VALUE/>
 </AMOUNT>
 </MOLECULAR_FRAGMENT>
 </STRUCTURAL_MODIFICATION>
<AGENT_MODIFICATION>
 <AGENT_MODIFICATION_TYPE/>
 <ROLE/>
 <MODIFICATION_AGENT/>
 <MODIFICATION_AGENT_ID/>
 <MODIFICATION_PROCESS/>
<AMOUNT>
 <AVERAGE/>
 <LOW_LIMIT/>
 <HIGH_LIMIT/>
 <UNIT/>
 <NON_NUMERIC_VALUE/>
 </AMOUNT>
 </AGENT_MODIFICATION>
 </MODIFICATION_GROUP>
<SOURCE_MATERIAL>
 <SOURCE_MATERIAL_CLASS/>
 <SOURCE_MATERIAL_TYPE/>
 <SOURCE_MATERIAL_STATE/>
 <ORGANISM_NAME_ID/>
 <ORGANISM_NAME/>
 <DEVELOPMENTAL_STAGE/>
<PART_GROUP>
 <PART/>
 <PART_LOCATION/>
 </PART_GROUP>
<FRACTION>
 <MATERIAL_TYPE/>
 <FRACTION/>
 </FRACTION>
 </SOURCE_MATERIAL>
 <COMMENTS/>
 </POLYMER>
<STEREOCHEMISTRY><OPT_ACT>(+/-)</OPT_ACT><TYPE>RACEMIC</TYPE><COMMENTS></COMMENTS></STEREOCHEMISTRY>

> <COMMENTS>
assumed racemic

> <CDBREGNO>
64869

> <STRUCTURE_ID>
31786

$$$$

  Symyx   06031522332D 1   1.00000     0.00000     0

 20 21  0     0  0            999 V2000
   -2.1645   -1.9979    0.0000 C   0  0  0  0  0  0           0  0  0
   -1.1007   -1.3837    0.0000 C   0  0  3  0  0  0           0  0  0
   -0.0369   -1.9979    0.0000 C   0  0  3  0  0  0           0  0  0
   -0.0369   -3.2262    0.0000 C   0  0  0  0  0  0           0  0  0
   -1.1007   -3.8404    0.0000 C   0  0  3  0  0  0           0  0  0
   -2.1645   -3.2262    0.0000 C   0  0  0  0  0  0           0  0  0
   -1.1007   -5.0687    0.0000 C   0  0  3  0  0  0           0  0  0
   -2.1645   -5.6829    0.0000 C   0  0  0  0  0  0           0  0  0
   -0.0369   -5.6829    0.0000 C   0  0  0  0  0  0           0  0  0
    1.0269   -1.3837    0.0000 C   0  0  0  0  0  0           0  0  0
    1.0269   -0.1553    0.0000 C   0  0  0  0  0  0           0  0  0
    2.0906    0.4588    0.0000 C   0  0  0  0  0  0           0  0  0
    3.1544   -0.1553    0.0000 C   0  0  0  0  0  0           0  0  0
    3.1544   -1.3837    0.0000 C   0  0  0  0  0  0           0  0  0
    2.0906   -1.9979    0.0000 C   0  0  0  0  0  0           0  0  0
    4.2182    0.4588    0.0000 O   0  0  0  0  0  0           0  0  0
    5.2820   -0.1553    0.0000 C   0  0  0  0  0  0           0  0  0
    6.3458    0.4588    0.0000 C   0  0  0  0  0  0           0  0  0
    7.4095   -0.1553    0.0000 O   0  0  0  0  0  0           0  0  0
   -1.1007   -0.1553    0.0000 C   0  0  0  0  0  0           0  0  0
  1  2  1  0     0  0
  3  2  1  0     0  0
  4  3  1  0     0  0
  5  4  1  0     0  0
  6  5  1  0     0  0
  1  6  1  0     0  0
  5  7  1  0     0  0
  7  8  1  0     0  0
  7  9  1  0     0  0
  3 10  1  0     0  0
 11 10  2  0     0  0
 12 11  1  0     0  0
 13 12  2  0     0  0
 14 13  1  0     0  0
 15 14  2  0     0  0
 10 15  1  0     0  0
 13 16  1  0     0  0
 16 17  1  0     0  0
 17 18  1  0     0  0
 18 19  1  0     0  0
  2 20  1  0     0  0
M  STY  1   1 SRU
M  SLB  1   1   1
M  SCN  1   1 HT
M  SAL   1  3  16  17  18
M  SBL   1  2  17  20
M  SMT   1 A
M  SDI   1  4    3.6800   -0.4500    3.6800    0.7700
M  SDI   1  4    6.8700    0.7700    6.8700   -0.4500
M  END
> <SUBSTANCE_ID>
118869

> <UNII>
FX89Y239GL

> <DESC_PART1>
<POLYMER>
 <POLYMER_CLASS>HOMOPOLYMER</POLYMER_CLASS>
 <POLYMER_GEOMETRY>LINEAR</POLYMER_GEOMETRY>
 <COPOLYMER_SEQUENCE_TYPE/>
<MONOMER_DESCRIPTION>
 <NUMBER_OF_MONOMERS>1</NUMBER_OF_MONOMERS>
 <MONOMER_AMOUNT_TYPE>WEIGHT PERCENTAGE</MONOMER_AMOUNT_TYPE>
<MONOMER_GROUP>
 <MONOMER_ID>JJH7GNN18P</MONOMER_ID>
 <MONOMER_NAME>ETHYLENE OXIDE</MONOMER_NAME>
<AMOUNT>
 <AVERAGE>100</AVERAGE>
 <LOW_LIMIT/>
 <HIGH_LIMIT/>
 <UNIT/>
 <NON_NUMERIC_VALUE/>
 </AMOUNT>
 </MONOMER_GROUP>
 </MONOMER_DESCRIPTION>
<STRUCTURAL_REPEAT_UNIT>
 <NUMBER_OF_STRUCTURAL_REPEAT_UNITS>1</NUMBER_OF_STRUCTURAL_REPEAT_UNITS>
 <STRUCTURAL_REPEAT_UNIT_AMOUNT_TYPE>WEIGHT PERCENT</STRUCTURAL_REPEAT_UNIT_AMOUNT_TYPE>
<STRUCTURAL_REPEAT_UNIT_GROUP>
 <ORIENTATION_OF_POLYMERIZATION>HEAD-TAIL</ORIENTATION_OF_POLYMERIZATION>
 <STRUCTURAL_REPEAT_UNIT>A</STRUCTURAL_REPEAT_UNIT>
<AMOUNT>
 <AVERAGE>100</AVERAGE>
 <LOW_LIMIT/>
 <HIGH_LIMIT/>
 <UNIT/>
 <NON_NUMERIC_VALUE/>
 </AMOUNT>
<DEGREE_POLYMERIZATION>
<AMOUNT>
 <AVERAGE>8.8</AVERAGE>
 <LOW_LIMIT/>
 <HIGH_LIMIT/>
 <UNIT/>
 <NON_NUMERIC_VALUE/>
 </AMOUNT>
 </DEGREE_POLYMERIZATION>
 <MOLFILE external="1"></MOLFILE>
 <FRAGMENT_CONNECTIVITY>16;18</FRAGMENT_CONNECTIVITY>
 </STRUCTURAL_REPEAT_UNIT_GROUP>
 </STRUCTURAL_REPEAT_UNIT>
<MOLECULAR_WEIGHT>
 <MOLECULAR_WEIGHT_TYPE>NUMBER AVERAGE</MOLECULAR_WEIGHT_TYPE>
 <MOLECULAR_WEIGHT_METHOD/>
<AMOUNT>
 <AVERAGE>620</AVERAGE>
 <LOW_LIMIT/>
 <HIGH_LIMIT/>
 <UNIT/>
 <NON_NUMERIC_VALUE/>
 </AMOUNT>
 </MOLECULAR_WEIGHT>
<PROPERTY_GROUP>
 <PROPERTY_TYPE/>
 <PROPERTY/>
 <SUBSTANCE_NAME/>
 <SUBSTANCE_ID/>
 <AMOUNT_TYPE/>
<AMOUNT>
 <AVERAGE/>
 <LOW_LIMIT/>
 <HIGH_LIMIT/>
 <UNIT/>
 <NON_NUMERIC_VALUE/>
 </AMOUNT>
 </PROPERTY_GROUP>
<MODIFICATION_GROUP>
 <MODIFICATION_TYPE/>
<PHYSICAL_MODIFICATION>
 <ROLE/>
 <NUMBER_OF_PARAMETERS/>
<PARAMETER_GROUP>
 <PARAMETER/>
<AMOUNT>
 <AVERAGE/>
 <LOW_LIMIT/>
 <HIGH_LIMIT/>
 <UNIT/>
 <NON_NUMERIC_VALUE/>
 </AMOUNT>
 </PARAMETER_GROUP>
 </PHYSICAL_MODIFICATION>
<STRUCTURAL_MODIFICATION>
 <RESIDUE_MODIFIED/>
 <RESIDUE_SITE/>
 <NUMBER_OF_FRAGMENTS_MOIETIES/>
 <AMOUNT_TYPE/>
<MOLECULAR_FRAGMENT_MOIETY>
 <STRUCTURAL_MODIFICATION_TYPE/>
 <ROLE/>
 <FRAGMENT_NUMBER/>
 <FRAGMENT_CONNECTIVTY/>
 <MOLECULAR_FRAGMENT_NAME/>
 <MOLECULAR_FRAGMENT_ID/>
<AMOUNT>
 <AVERAGE/>
 <LOW_LIMIT/>
 <HIGH_LIMIT/>
 <UNIT/>
 <NON_NUMERIC_VALUE/>
 </AMOUNT>
 </MOLECULAR_FRAGMENT_MOIETY>
 </STRUCTURAL_MODIFICATION>
<AGENT_MODIFICATION>
 <AGENT_MODIFICATION_TYPE/>
 <ROLE/>
 <MODIFICATION_AGENT/>
 <MODIFICATION_AGENT_ID/>
 <MODIFICATION_PROCESS/>
 <AMOUNT_TYPE/>
<AMOUNT>
 <AVERAGE/>
 <LOW_LIMIT/>
 <HIGH_LIMIT/>
 <UNIT/>
 <NON_NUMERIC_VALUE/>
 </AMOUNT>
 </AGENT_MODIFICATION>
 </MODIFICATION_GROUP>
<SOURCE_MATERIAL>
 <SOURCE_MATERIAL_CLASS/>
 <SOURCE_MATERIAL_TYPE/>
 <SOURCE_MATERIAL_STATE/>
<FAMILY>
<GENUS>
<SPECIES>
 <STRAIN/>
 </SPECIES>
 </GENUS>
 </FAMILY>
 <ORGANISM_NAME_ID/>
 <ORGANISM_NAME/>
 <DEVELOPMENTAL_STAGE/>
<PART_GROUP>
 <PART/>
 <PART_LOCATION/>
 </PART_GROUP>
<FRACTION>
 <MATERIAL_TYPE/>
 <FRACTION/>
 </FRACTION>
 </SOURCE_MATERIAL>
 <COMMENTS>ASSUMED NUMBER AVERAGE MOLECULAR WEIGHT</COMMENTS>
 </POLYMER>
<STEREOCHEMISTRY><OPT_ACT></OPT_ACT><TYPE>MIXED</TYPE><COMMENTS></COMMENTS></STEREOCHEMISTRY>

> <COMMENTS>
ASSUMED MIXTURE OF EIGHT STEREOISOMERS

> <CDBREGNO>
86831

> <STRUCTURE_ID>
51427

$$$$

  Symyx   06031522332D 1   1.00000     0.00000     0

 31 31  0     1  0            999 V2000
   13.6034   -9.5998    0.0000 O   0  0  0  0  0  0           0  0  0
   13.2229   -8.9546    0.0000 C   0  0  1  0  0  0           0  0  0
   13.5943   -8.3082    0.0000 C   0  0  2  0  0  0           0  0  0
   13.2180   -7.6682    0.0000 O   0  0  0  0  0  0           0  0  0
   12.4703   -7.6682    0.0000 C   0  0  1  0  0  0           0  0  0
   12.1030   -8.3146    0.0000 C   0  0  2  0  0  0           0  0  0
   12.4793   -8.9546    0.0000 C   0  0  2  0  0  0           0  0  0
   12.1120   -9.6103    0.0000 O   0  0  0  0  0  0           0  0  0
   11.3552   -8.3146    0.0000 O   0  0  0  0  0  0           0  0  0
   12.0938   -6.9699    0.0000 C   0  0  0  0  0  0           0  0  0
    9.9981   -6.9699    0.0000 O   0  0  0  0  0  0           0  0  0
   14.3380   -8.3082    0.0000 O   0  0  0  0  0  0           0  0  0
   16.2990   -8.3082    0.0000 *   0  0  0  0  0  0           0  0  0
    9.2010   -6.9699    0.0000 *   0  0  0  0  0  0           0  0  0
   14.3471   -9.5998    0.0000 R   0  0  0  0  0  0           0  0  0
    9.0015  -13.1423    0.0000 O   0  0  0  0  0  0           0  0  0
    8.6210  -12.4971    0.0000 C   0  0  1  0  0  0           0  0  0
    8.9924  -11.8507    0.0000 C   0  0  2  0  0  0           0  0  0
    8.6160  -11.2107    0.0000 O   0  0  0  0  0  0           0  0  0
    7.8683  -11.2107    0.0000 C   0  0  1  0  0  0           0  0  0
    7.5011  -11.8571    0.0000 C   0  0  2  0  0  0           0  0  0
    7.8773  -12.4971    0.0000 C   0  0  2  0  0  0           0  0  0
    7.5101  -13.1528    0.0000 O   0  0  0  0  0  0           0  0  0
    6.7532  -11.8571    0.0000 O   0  0  0  0  0  0           0  0  0
    7.4919  -10.5124    0.0000 C   0  0  0  0  0  0           0  0  0
    5.3962  -10.5124    0.0000 O   0  0  0  0  0  0           0  0  0
    4.5990  -10.5124    0.0000 *   0  0  0  0  0  0           0  0  0
    9.7360  -11.8507    0.0000 O   0  0  0  0  0  0           0  0  0
   11.6971  -11.8507    0.0000 *   0  0  0  0  0  0           0  0  0
    9.7451  -13.1423    0.0000 R   0  0  0  0  0  0           0  0  0
    7.8943  -13.7986    0.0000 *   0  0  0  0  0  0           0  0  0
  2  1  1  6     0  0
  3  2  1  0     0  0
  4  3  1  0     0  0
  5  4  1  0     0  0
  6  5  1  0     0  0
  7  6  1  0     0  0
  2  7  1  0     0  0
  7  8  1  1     0  0
  6  9  1  6     0  0
  5 10  1  1     0  0
 11 10  1  0     0  0
  3 12  1  6     0  0
 13 12  1  0     0  0
 11 14  1  0     0  0
  1 15  1  0     0  0
 17 16  1  6     0  0
 18 17  1  0     0  0
 19 18  1  0     0  0
 20 19  1  0     0  0
 21 20  1  0     0  0
 22 21  1  0     0  0
 17 22  1  0     0  0
 22 23  1  1     0  0
 21 24  1  6     0  0
 20 25  1  1     0  0
 26 25  1  0     0  0
 26 27  1  0     0  0
 18 28  1  6     0  0
 29 28  1  0     0  0
 16 30  1  0     0  0
 23 31  1  0     0  0
M  STY  2   1 SRU   2 SRU
M  SLB  2   1   1   2   2
M  SCN  2   1 HT    2 HT
M  SAL   1 12   1   2   3   4   5   6   7   8   9  10  12  15
M  SBL   1  2  11  13
M  SMT   1 A
M  SDI   1  4   11.0416   -7.6031   11.0416   -6.3823
M  SDI   1  4   15.3166   -7.7114   15.3166   -8.9448
M  SAL   2 13  16  17  18  19  20  21  22  23  24  25  28  30  31
M  SBL   2  2  26  29
M  SMT   2 B
M  SDI   2  4    6.4355  -11.1425    6.4355   -9.9217
M  SDI   2  4   10.7105  -11.2508   10.7105  -12.4842
M  END
> <SUBSTANCE_ID>
89815

> <UNII>
MDU8BQ474H

> <DESC_PART1>
<SUBSTANCE>
 <SUBSTANCE_ID/>
<SINGLE_SUBSTANCE>
<ELEMENT_TYPE>
<POLYMER>
 <POLYMER_TYPE>COPOLYMER</POLYMER_TYPE>
 <AMOUNT_TYPE>MOLE</AMOUNT_TYPE>
<MONOMER_GROUP>
 <MONOMER_LABEL>A</MONOMER_LABEL>
 <INCHI>InChI=1S/C6H12O6/c7-1-2-3(8)4(9)5(10)6(11)12-2/h2-11H,1H2/t2-,3-,4+,5-,6+/m1/s1</INCHI>
 <UNII>5J5I9EB41E</UNII>
 <NAME>.ALPHA.-D-GLUCOPYRANOSE</NAME>
<AMOUNT>
 <AVERAGE>62</AVERAGE>
 <LOW_LIMIT/>
 <HIGH_LIMIT/>
 <UNIT>MOL</UNIT>
 <NON_NUMERIC_VALUE/>
 </AMOUNT>
<MONOMER_RESIDUE_GROUP>
 <RESIDUE_LABEL>A1</RESIDUE_LABEL>
 <RESIDUE_INCHI>InChI=1S/C6H9He3O6/c7-12-1-2-3(10)5(14-8)4(11)6(13-2)15-9/h2-6,10-11H,1H2/t2-,3-,4-,5+,6-/m1/s1/i7+1,8+0,9-1</RESIDUE_INCHI>
 </MONOMER_RESIDUE_GROUP>
<MONOMER_RESIDUE_GROUP>
 <RESIDUE_LABEL>A2</RESIDUE_LABEL>
 <RESIDUE_INCHI>InChI=1S/C6H10He2O6/c7-12-1-2-3(9)4(10)5(11)6(13-2)14-8/h2-6,9-11H,1H2/t2-,3-,4+,5-,6-/m1/s1/i7+0,8-1</RESIDUE_INCHI>
 </MONOMER_RESIDUE_GROUP>
 </MONOMER_GROUP>
<MOIETY_FRAGMENT_GROUP>
<MOIETY>
 <MOIETY_LABEL>B</MOIETY_LABEL>
 <MOIETY_INCHI/>
 <MOIETY_UNII/>
 <MOIETY_NAME/>
 </MOIETY>
<FRAGMENT>
 <FRAGMENT_LABEL>B1</FRAGMENT_LABEL>
 <FRAGMENT_INCHI>InChI=1S/C5H11He2NS/c6-2-1-4-9-5-3-8-7/h8H,1-5H2/i6-1,7+0</FRAGMENT_INCHI>
 <FRAGMENT_UNII/>
 <FRAGMENT_NAME>AMINE LEASH</FRAGMENT_NAME>
 </FRAGMENT>
<AMOUNT>
 <AVERAGE/>
 <LOW_LIMIT>15</LOW_LIMIT>
 <HIGH_LIMIT>42</HIGH_LIMIT>
 <UNIT>MOL</UNIT>
 <NON_NUMERIC_VALUE/>
 </AMOUNT>
 </MOIETY_FRAGMENT_GROUP>
<MOIETY_FRAGMENT_GROUP>
<MOIETY>
 <MOIETY_LABEL>C</MOIETY_LABEL>
 <MOIETY_INCHI>InChI=1S/C14H23N3O10/c18-10(19)5-15(1-3-16(6-11(20)21)7-12(22)23)2-4-17(8-13(24)25)9-14(26)27/h1-9H2,(H,18,19)(H,20,21)(H,22,23)(H,24,25)(H,26,27)</MOIETY_INCHI>
 <MOIETY_UNII>7A314HQM0I</MOIETY_UNII>
 <MOIETY_NAME>PENTETIC ACID</MOIETY_NAME>
 </MOIETY>
<FRAGMENT>
 <FRAGMENT_LABEL>C1</FRAGMENT_LABEL>
 <FRAGMENT_INCHI>InChI=1S/C14H22HeN3O9/c15-10(19)5-17(7-12(22)23)3-1-16(6-11(20)21)2-4-18(8-13(24)25)9-14(26)27/h1-9H2,(H,20,21)(H,22,23)(H,24,25)(H,26,27)/i15-1</FRAGMENT_INCHI>
 <FRAGMENT_UNII/>
 <FRAGMENT_NAME/>
 </FRAGMENT>
<AMOUNT>
 <AVERAGE/>
 <LOW_LIMIT>3</LOW_LIMIT>
 <HIGH_LIMIT>8</HIGH_LIMIT>
 <UNIT>MOL</UNIT>
 <NON_NUMERIC_VALUE/>
 </AMOUNT>
 </MOIETY_FRAGMENT_GROUP>
<MOIETY_FRAGMENT_GROUP>
<MOIETY>
 <MOIETY_LABEL>D</MOIETY_LABEL>
 <MOIETY_INCHI/>
 <MOIETY_UNII/>
 <MOIETY_NAME/>
 </MOIETY>
<FRAGMENT>
 <FRAGMENT_LABEL>D1</FRAGMENT_LABEL>
 <FRAGMENT_INCHI>InChI=1S/C8H14HeNO5S/c9-4(10)2-16-8-7(14)6(13)5(12)3(1-11)15-8/h3,5-8,10-14H,1-2H2/t3-,5-,6+,7+,8?/m0/s1/i9-1</FRAGMENT_INCHI>
 <FRAGMENT_UNII/>
 <FRAGMENT_NAME/>
 </FRAGMENT>
<AMOUNT>
 <AVERAGE/>
 <LOW_LIMIT>12</LOW_LIMIT>
 <HIGH_LIMIT>20</HIGH_LIMIT>
 <UNIT>MOL</UNIT>
 <NON_NUMERIC_VALUE/>
 </AMOUNT>
 </MOIETY_FRAGMENT_GROUP>
<POLYMERIZATION_AREA_GROUP>
 <POLYMERIZATION_AREA_NUMBER>1</POLYMERIZATION_AREA_NUMBER>
 <POLYMERIZATION_TYPE>STATISTICAL</POLYMERIZATION_TYPE>
 <POLYMERIZATION_GEOMETRY>NON-LINEAR</POLYMERIZATION_GEOMETRY>
<RESIDUES>
<RESIDUE_GROUP>
 <RESIDUE_LABEL>A1</RESIDUE_LABEL>
<AMOUNT>
 <AVERAGE/>
 <LOW_LIMIT/>
 <HIGH_LIMIT/>
 <UNIT/>
 <NON_NUMERIC_VALUE/>
 </AMOUNT>
 </RESIDUE_GROUP>
<RESIDUE_GROUP>
 <RESIDUE_LABEL>A2</RESIDUE_LABEL>
<AMOUNT>
 <AVERAGE/>
 <LOW_LIMIT/>
 <HIGH_LIMIT/>
 <UNIT/>
 <NON_NUMERIC_VALUE/>
 </AMOUNT>
 </RESIDUE_GROUP>
 </RESIDUES>
<ALLOWED_RESIDUE_CONNECTIVITIES>
 <CONNECTIVITY>A1_3-5_A1</CONNECTIVITY>
 <CONNECTIVITY>A1_3-4_A1</CONNECTIVITY>
 <CONNECTIVITY>A1_3-4_A2</CONNECTIVITY>
 <CONNECTIVITY>A1_4-3_A2</CONNECTIVITY>
 <CONNECTIVITY>A1_5-3_A2</CONNECTIVITY>
 </ALLOWED_RESIDUE_CONNECTIVITIES>
<MOLECULAR_WEIGHT>
 <MOLECULAR_WEIGHT_TYPE/>
 <MOLECULAR_WEIGHT_METHOD/>
<AMOUNT>
 <AVERAGE>10000</AVERAGE>
 <LOW_LIMIT/>
 <HIGH_LIMIT/>
 <UNIT>DA</UNIT>
 <NON_NUMERIC_VALUE/>
 </AMOUNT>
 </MOLECULAR_WEIGHT>
 </POLYMERIZATION_AREA_GROUP>
<MODIFICATION_GROUP>
<STRUCTURAL_MODIFICATION>
 <RESIDUE_LABEL>A1</RESIDUE_LABEL>
 <MODIFIED_RES

> <DESC_PART2>
IDUE_INCHI>InChI=1S/C6H8He4O6/c7-12-1-2-3(11)4(14-8)5(15-9)6(13-2)16-10/h2-6,11H,1H2/t2-,3-,4+,5-,6-/m1/s1/i7+1,8+0,9+2,10-1</MODIFIED_RESIDUE_INCHI>
 <AMOUNT_TYPE/>
 <NUMBER_OF_FRAGMENTS_MOIETIES>1</NUMBER_OF_FRAGMENTS_MOIETIES>
<FRAGMENT_MOIETY>
 <LABEL>B1</LABEL>
<AMOUNT>
 <AVERAGE/>
 <LOW_LIMIT/>
 <HIGH_LIMIT/>
 <UNIT/>
 <NON_NUMERIC_VALUE/>
 </AMOUNT>
 </FRAGMENT_MOIETY>
<FRAGMENTS_CONNECTIVTY>
 <CONNECTIVITY>A1_6-3_B1</CONNECTIVITY>
 </FRAGMENTS_CONNECTIVTY>
<AMOUNT>
 <AVERAGE/>
 <LOW_LIMIT/>
 <HIGH_LIMIT/>
 <UNIT/>
 <NON_NUMERIC_VALUE/>
 </AMOUNT>
 </STRUCTURAL_MODIFICATION>
 </MODIFICATION_GROUP>
<MODIFICATION_GROUP>
<STRUCTURAL_MODIFICATION>
 <RESIDUE_LABEL>A2</RESIDUE_LABEL>
 <MODIFIED_RESIDUE_INCHI>InChI=1S/C6H9He3O6/c7-12-1-2-3(10)4(11)5(14-8)6(13-2)15-9/h2-6,10-11H,1H2/t2-,3-,4+,5-,6-/m1/s1/i7+0,8+1,9-1</MODIFIED_RESIDUE_INCHI>
 <AMOUNT_TYPE/>
 <NUMBER_OF_FRAGMENTS_MOIETIES>1</NUMBER_OF_FRAGMENTS_MOIETIES>
<FRAGMENT_MOIETY>
 <LABEL>B1</LABEL>
<AMOUNT>
 <AVERAGE/>
 <LOW_LIMIT/>
 <HIGH_LIMIT/>
 <UNIT/>
 <NON_NUMERIC_VALUE/>
 </AMOUNT>
 </FRAGMENT_MOIETY>
<FRAGMENTS_CONNECTIVTY>
 <CONNECTIVITY>A2_5-3_B1</CONNECTIVITY>
 </FRAGMENTS_CONNECTIVTY>
 </STRUCTURAL_MODIFICATION>
 </MODIFICATION_GROUP>
<MODIFICATION_GROUP>
<STRUCTURAL_MODIFICATION>
 <RESIDUE_LABEL>A1</RESIDUE_LABEL>
 <MODIFIED_RESIDUE_INCHI>InChI=1S/C6H8He4O6/c7-12-1-2-3(11)4(14-8)5(15-9)6(13-2)16-10/h2-6,11H,1H2/t2-,3-,4+,5-,6-/m1/s1/i7+1,8+0,9+2,10-1</MODIFIED_RESIDUE_INCHI>
 <AMOUNT_TYPE/>
 <NUMBER_OF_FRAGMENTS_MOIETIES>2</NUMBER_OF_FRAGMENTS_MOIETIES>
<FRAGMENT_MOIETY>
 <LABEL>B1</LABEL>
<AMOUNT>
 <AVERAGE/>
 <LOW_LIMIT/>
 <HIGH_LIMIT/>
 <UNIT/>
 <NON_NUMERIC_VALUE/>
 </AMOUNT>
 </FRAGMENT_MOIETY>
<FRAGMENT_MOIETY>
 <LABEL>C1</LABEL>
<AMOUNT>
 <AVERAGE/>
 <LOW_LIMIT/>
 <HIGH_LIMIT/>
 <UNIT/>
 <NON_NUMERIC_VALUE/>
 </AMOUNT>
 </FRAGMENT_MOIETY>
<FRAGMENTS_CONNECTIVTY>
 <CONNECTIVITY>A1_6-3_B1</CONNECTIVITY>
 <CONNECTIVITY>B1_4-3_C1</CONNECTIVITY>
 </FRAGMENTS_CONNECTIVTY>
 </STRUCTURAL_MODIFICATION>
 </MODIFICATION_GROUP>
<MODIFICATION_GROUP>
<STRUCTURAL_MODIFICATION>
 <RESIDUE_LABEL>A2</RESIDUE_LABEL>
 <MODIFIED_RESIDUE_INCHI>InChI=1S/C6H9He3O6/c7-12-1-2-3(10)4(11)5(14-8)6(13-2)15-9/h2-6,10-11H,1H2/t2-,3-,4+,5-,6-/m1/s1/i7+0,8+1,9-1</MODIFIED_RESIDUE_INCHI>
 <AMOUNT_TYPE/>
 <NUMBER_OF_FRAGMENTS_MOIETIES>2</NUMBER_OF_FRAGMENTS_MOIETIES>
<FRAGMENT_MOIETY>
 <LABEL>B1</LABEL>
<AMOUNT>
 <AVERAGE/>
 <LOW_LIMIT/>
 <HIGH_LIMIT/>
 <UNIT/>
 <NON_NUMERIC_VALUE/>
 </AMOUNT>
 </FRAGMENT_MOIETY>
<FRAGMENT_MOIETY>
 <LABEL>C1</LABEL>
<AMOUNT>
 <AVERAGE/>
 <LOW_LIMIT/>
 <HIGH_LIMIT/>
 <UNIT/>
 <NON_NUMERIC_VALUE/>
 </AMOUNT>
 </FRAGMENT_MOIETY>
<FRAGMENTS_CONNECTIVTY>
 <CONNECTIVITY>A2_5-3_B1</CONNECTIVITY>
 <CONNECTIVITY>B1_4-3_C1</CONNECTIVITY>
 </FRAGMENTS_CONNECTIVTY>
 </STRUCTURAL_MODIFICATION>
 </MODIFICATION_GROUP>
<MODIFICATION_GROUP>
<STRUCTURAL_MODIFICATION>
 <RESIDUE_LABEL>A1</RESIDUE_LABEL>
 <MODIFIED_RESIDUE_INCHI>InChI=1S/C6H8He4O6/c7-12-1-2-3(11)4(14-8)5(15-9)6(13-2)16-10/h2-6,11H,1H2/t2-,3-,4+,5-,6-/m1/s1/i7+1,8+0,9+2,10-1</MODIFIED_RESIDUE_INCHI>
 <AMOUNT_TYPE/>
 <NUMBER_OF_FRAGMENTS_MOIETIES>2</NUMBER_OF_FRAGMENTS_MOIETIES>
<FRAGMENT_MOIETY>
 <LABEL>B1</LABEL>
<AMOUNT>
 <AVERAGE/>
 <LOW_LIMIT/>
 <HIGH_LIMIT/>
 <UNIT/>
 <NON_NUMERIC_VALUE/>
 </AMOUNT>
 </FRAGMENT_MOIETY>
<FRAGMENT_MOIETY>
 <LABEL>D1</LABEL>
<AMOUNT>
 <AVERAGE/>
 <LOW_LIMIT/>
 <HIGH_LIMIT/>
 <UNIT/>
 <NON_NUMERIC_VALUE/>
 </AMOUNT>
 </FRAGMENT_MOIETY>
<FRAGMENTS_CONNECTIVTY>
 <CONNECTIVITY>A1_6-3_B1</CONNECTIVITY>
 <CONNECTIVITY>B1_4-3_D1</CONNECTIVITY>
 </FRAGMENTS_CONNECTIVTY>
 </STRUCTURAL_MODIFICATION>
 </MODIFICATION_GROUP>
<MODIFICATION_GROUP>
<STRUCTURAL_MODIFICATION>
 <RESIDUE_LABEL>A2</RESIDUE_LABEL>
 <MODIFIED_RESIDUE_INCHI>InChI=1S/C6H9He3O6/c7-12-1-2-3(10)4(11)5(14-8)6(13-2)15-9/h2-6,10-11H,1H2/t2-,3-,4+,5-,6-/m1/s1/i7+0,8+1,9-1</MODIF

> <DESC_PART3>
IED_RESIDUE_INCHI>
 <AMOUNT_TYPE/>
 <NUMBER_OF_FRAGMENTS_MOIETIES>2</NUMBER_OF_FRAGMENTS_MOIETIES>
<FRAGMENT_MOIETY>
 <LABEL>B1</LABEL>
<AMOUNT>
 <AVERAGE/>
 <LOW_LIMIT/>
 <HIGH_LIMIT/>
 <UNIT/>
 <NON_NUMERIC_VALUE/>
 </AMOUNT>
 </FRAGMENT_MOIETY>
<FRAGMENT_MOIETY>
 <LABEL>D1</LABEL>
<AMOUNT>
 <AVERAGE/>
 <LOW_LIMIT/>
 <HIGH_LIMIT/>
 <UNIT/>
 <NON_NUMERIC_VALUE/>
 </AMOUNT>
 </FRAGMENT_MOIETY>
<FRAGMENTS_CONNECTIVTY>
 <CONNECTIVITY>A2_5-3_B1</CONNECTIVITY>
 <CONNECTIVITY>B1_4-3_D1</CONNECTIVITY>
 </FRAGMENTS_CONNECTIVTY>
 </STRUCTURAL_MODIFICATION>
 </MODIFICATION_GROUP>
<MOLECULAR_WEIGHT>
 <MOLECULAR_WEIGHT_TYPE/>
 <MOLECULAR_WEIGHT_METHOD/>
<AMOUNT>
 <AVERAGE/>
 <LOW_LIMIT>15281</LOW_LIMIT>
 <HIGH_LIMIT>23454</HIGH_LIMIT>
 <UNIT>DA</UNIT>
 <NON_NUMERIC_VALUE/>
 </AMOUNT>
 </MOLECULAR_WEIGHT>
 <PUBLIC_DOMAIN/>
 <COMMENTS/>
 </POLYMER>
 </ELEMENT_TYPE>
 </SINGLE_SUBSTANCE>
 </SUBSTANCE>

> <CDBREGNO>
79929

> <STRUCTURE_ID>
46313

$$$$

  Symyx   06031522332D 1   1.00000     0.00000     0

 32 31  0     1  0            999 V2000
    5.3150   -6.5420    0.0000 O   0  0  0  0  0  0           0  0  0
    4.9387   -5.9010    0.0000 C   0  0  1  0  0  0           0  0  0
    5.3059   -5.2629    0.0000 C   0  0  2  0  0  0           0  0  0
    4.9337   -4.6271    0.0000 O   0  0  0  0  0  0           0  0  0
    4.1943   -4.6271    0.0000 C   0  0  1  0  0  0           0  0  0
    3.8313   -5.2693    0.0000 C   0  0  2  0  0  0           0  0  0
    4.2033   -5.9010    0.0000 C   0  0  2  0  0  0           0  0  0
    3.8403   -6.5525    0.0000 O   0  0  0  0  0  0           0  0  0
    4.2203   -7.1900    0.0000 *   0  0  0  0  0  0           0  0  0
    3.0917   -5.2693    0.0000 O   0  0  0  0  0  0           0  0  0
    3.8221   -3.9371    0.0000 C   0  0  0  0  0  0           0  0  0
    1.7472   -3.9371    0.0000 O   0  0  0  0  0  0           0  0  0
    0.9583   -3.9371    0.0000 *   0  0  0  0  0  0           0  0  0
    6.0453   -5.2629    0.0000 O   0  0  0  0  0  0           0  0  0
    7.9856   -5.2629    0.0000 *   0  0  0  0  0  0           0  0  0
    6.0503   -6.5420    0.0000 R   0  0  0  0  0  0           0  0  0
    9.8711   -3.0329    0.0000 O   0  0  0  0  0  0           0  0  0
   10.6064   -3.0329    0.0000 R   0  0  0  0  0  0           0  0  0
    9.4947   -2.3960    0.0000 C   0  0  1  0  0  0           0  0  0
    9.8620   -1.7538    0.0000 C   0  0  2  0  0  0           0  0  0
    9.4898   -1.1221    0.0000 O   0  0  0  0  0  0           0  0  0
    8.7505   -1.1221    0.0000 C   0  0  1  0  0  0           0  0  0
    8.3873   -1.7602    0.0000 C   0  0  2  0  0  0           0  0  0
    8.7595   -2.3960    0.0000 C   0  0  2  0  0  0           0  0  0
    8.3963   -3.0434    0.0000 O   0  0  0  0  0  0           0  0  0
    7.6479   -1.7602    0.0000 O   0  0  0  0  0  0           0  0  0
    8.3781   -0.4321    0.0000 C   0  0  0  0  0  0           0  0  0
    6.3033   -0.4321    0.0000 O   0  0  0  0  0  0           0  0  0
    5.5145   -0.4321    0.0000 *   0  0  0  0  0  0           0  0  0
   10.5973   -1.7538    0.0000 O   0  0  0  0  0  0           0  0  0
   12.5417   -1.7538    0.0000 *   0  0  0  0  0  0           0  0  0
   11.2500   -5.3438    0.0000 Tc  0  0  0  0  0  0           0  0  0
  3 14  1  6     0  0
 15 14  1  0     0  0
  1 16  1  0     0  0
  2  1  1  6     0  0
  3  2  1  0     0  0
  4  3  1  0     0  0
  5  4  1  0     0  0
  6  5  1  0     0  0
  7  6  1  0     0  0
  2  7  1  0     0  0
  7  8  1  1     0  0
  8  9  1  0     0  0
  6 10  1  6     0  0
  5 11  1  1     0  0
 12 11  1  0     0  0
 17 18  1  0     0  0
 19 17  1  6     0  0
 20 19  1  0     0  0
 21 20  1  0     0  0
 22 21  1  0     0  0
 23 22  1  0     0  0
 24 23  1  0     0  0
 19 24  1  0     0  0
 24 25  1  1     0  0
 23 26  1  6     0  0
 22 27  1  1     0  0
 28 27  1  0     0  0
 28 29  1  0     0  0
 20 30  1  6     0  0
 31 30  1  0     0  0
 12 13  1  0     0  0
M  CHG  1  32   4
M  ISO  1  32  99
M  STY  2   1 SRU   2 SRU
M  SLB  2   1   1   2   2
M  SCN  2   1 HT    2 HT
M  SAL   1 13   1   2   3   4   5   6   7   8   9  10  11  14  16
M  SBL   1  2   2  15
M  SMT   1 B
M  SDI   1  4    2.7500   -4.5400    2.7500   -3.3300
M  SDI   1  4    6.9900   -4.6600    6.9900   -5.8600
M  SAL   2 12  17  18  19  20  21  22  23  24  25  26  27  30
M  SBL   2  2  27  30
M  SMT   2 A
M  SDI   2  4    7.3200   -1.0500    7.3200    0.1800
M  SDI   2  4   11.5500   -1.1500   11.5500   -2.3600
M  END
> <SUBSTANCE_ID>
123631

> <UNII>
8IHI69PQTC

> <DESC_PART1>
<SUBSTANCE>
 <SUBSTANCE_ID/>
<SINGLE_SUBSTANCE>
<ELEMENT_TYPE>
<POLYMER>
 <POLYMER_TYPE>COPOLYMER</POLYMER_TYPE>
 <AMOUNT_TYPE>MOLE</AMOUNT_TYPE>
<MONOMER_GROUP>
 <MONOMER_LABEL>A</MONOMER_LABEL>
 <INCHI>InChI=1S/C6H12O6/c7-1-2-3(8)4(9)5(10)6(11)12-2/h2-11H,1H2/t2-,3-,4+,5-,6+/m1/s1</INCHI>
 <UNII>5J5I9EB41E</UNII>
 <NAME>.ALPHA.-D-GLUCOPYRANOSE</NAME>
<AMOUNT>
 <AVERAGE>62</AVERAGE>
 <LOW_LIMIT/>
 <HIGH_LIMIT/>
 <UNIT>MOL</UNIT>
 <NON_NUMERIC_VALUE/>
 </AMOUNT>
<MONOMER_RESIDUE_GROUP>
 <RESIDUE_LABEL>A1</RESIDUE_LABEL>
 <RESIDUE_INCHI>InChI=1S/C6H9He3O6/c7-12-1-2-3(10)5(14-8)4(11)6(13-2)15-9/h2-6,10-11H,1H2/t2-,3-,4-,5+,6-/m1/s1/i7+1,8+0,9-1</RESIDUE_INCHI>
 </MONOMER_RESIDUE_GROUP>
<MONOMER_RESIDUE_GROUP>
 <RESIDUE_LABEL>A2</RESIDUE_LABEL>
 <RESIDUE_INCHI>InChI=1S/C6H10He2O6/c7-12-1-2-3(9)4(10)5(11)6(13-2)14-8/h2-6,9-11H,1H2/t2-,3-,4+,5-,6-/m1/s1/i7+0,8-1</RESIDUE_INCHI>
 </MONOMER_RESIDUE_GROUP>
 </MONOMER_GROUP>
<MOIETY_FRAGMENT_GROUP>
<MOIETY>
 <MOIETY_LABEL>B</MOIETY_LABEL>
 <MOIETY_INCHI/>
 <MOIETY_UNII/>
 <MOIETY_NAME/>
 </MOIETY>
<FRAGMENT>
 <FRAGMENT_LABEL>B1</FRAGMENT_LABEL>
 <FRAGMENT_INCHI>InChI=1S/C5H11He2NS/c6-2-1-4-9-5-3-8-7/h8H,1-5H2/i6-1,7+0</FRAGMENT_INCHI>
 <FRAGMENT_UNII/>
 <FRAGMENT_NAME>AMINE LEASH</FRAGMENT_NAME>
 </FRAGMENT>
<AMOUNT>
 <AVERAGE/>
 <LOW_LIMIT>15</LOW_LIMIT>
 <HIGH_LIMIT>42</HIGH_LIMIT>
 <UNIT>MOL</UNIT>
 <NON_NUMERIC_VALUE/>
 </AMOUNT>
 </MOIETY_FRAGMENT_GROUP>
<MOIETY_FRAGMENT_GROUP>
<MOIETY>
 <MOIETY_LABEL>C</MOIETY_LABEL>
 <MOIETY_INCHI>InChI=1S/C14H23N3O10/c18-10(19)5-15(1-3-16(6-11(20)21)7-12(22)23)2-4-17(8-13(24)25)9-14(26)27/h1-9H2,(H,18,19)(H,20,21)(H,22,23)(H,24,25)(H,26,27)</MOIETY_INCHI>
 <MOIETY_UNII>7A314HQM0I</MOIETY_UNII>
 <MOIETY_NAME>PENTETIC ACID</MOIETY_NAME>
 </MOIETY>
<FRAGMENT>
 <FRAGMENT_LABEL>C1</FRAGMENT_LABEL>
 <FRAGMENT_INCHI>InChI=1S/C14H22HeN3O9/c15-10(19)5-17(7-12(22)23)3-1-16(6-11(20)21)2-4-18(8-13(24)25)9-14(26)27/h1-9H2,(H,20,21)(H,22,23)(H,24,25)(H,26,27)/i15-1</FRAGMENT_INCHI>
 <FRAGMENT_UNII/>
 <FRAGMENT_NAME/>
 </FRAGMENT>
<AMOUNT>
 <AVERAGE/>
 <LOW_LIMIT>3</LOW_LIMIT>
 <HIGH_LIMIT>8</HIGH_LIMIT>
 <UNIT>MOL</UNIT>
 <NON_NUMERIC_VALUE/>
 </AMOUNT>
 </MOIETY_FRAGMENT_GROUP>
<MOIETY_FRAGMENT_GROUP>
<MOIETY>
 <MOIETY_LABEL>D</MOIETY_LABEL>
 <MOIETY_INCHI/>
 <MOIETY_UNII/>
 <MOIETY_NAME/>
 </MOIETY>
<FRAGMENT>
 <FRAGMENT_LABEL>D1</FRAGMENT_LABEL>
 <FRAGMENT_INCHI>InChI=1S/C8H14HeNO5S/c9-4(10)2-16-8-7(14)6(13)5(12)3(1-11)15-8/h3,5-8,10-14H,1-2H2/t3-,5-,6+,7+,8?/m0/s1/i9-1</FRAGMENT_INCHI>
 <FRAGMENT_UNII/>
 <FRAGMENT_NAME/>
 </FRAGMENT>
<AMOUNT>
 <AVERAGE/>
 <LOW_LIMIT>12</LOW_LIMIT>
 <HIGH_LIMIT>20</HIGH_LIMIT>
 <UNIT>MOL</UNIT>
 <NON_NUMERIC_VALUE/>
 </AMOUNT>
 </MOIETY_FRAGMENT_GROUP>
<POLYMERIZATION_AREA_GROUP>
 <POLYMERIZATION_AREA_NUMBER>1</POLYMERIZATION_AREA_NUMBER>
 <POLYMERIZATION_TYPE>STATISTICAL</POLYMERIZATION_TYPE>
 <POLYMERIZATION_GEOMETRY>NON-LINEAR</POLYMERIZATION_GEOMETRY>
<RESIDUES>
<RESIDUE_GROUP>
 <RESIDUE_LABEL>A1</RESIDUE_LABEL>
<AMOUNT>
 <AVERAGE/>
 <LOW_LIMIT/>
 <HIGH_LIMIT/>
 <UNIT/>
 <NON_NUMERIC_VALUE/>
 </AMOUNT>
 </RESIDUE_GROUP>
<RESIDUE_GROUP>
 <RESIDUE_LABEL>A2</RESIDUE_LABEL>
<AMOUNT>
 <AVERAGE/>
 <LOW_LIMIT/>
 <HIGH_LIMIT/>
 <UNIT/>
 <NON_NUMERIC_VALUE/>
 </AMOUNT>
 </RESIDUE_GROUP>
 </RESIDUES>
<ALLOWED_RESIDUE_CONNECTIVITIES>
 <CONNECTIVITY>A1_3-5_A1</CONNECTIVITY>
 <CONNECTIVITY>A1_3-4_A1</CONNECTIVITY>
 <CONNECTIVITY>A1_3-4_A2</CONNECTIVITY>
 <CONNECTIVITY>A1_4-3_A2</CONNECTIVITY>
 <CONNECTIVITY>A1_5-3_A2</CONNECTIVITY>
 </ALLOWED_RESIDUE_CONNECTIVITIES>
<MOLECULAR_WEIGHT>
 <MOLECULAR_WEIGHT_TYPE/>
 <MOLECULAR_WEIGHT_METHOD/>
<AMOUNT>
 <AVERAGE>10000</AVERAGE>
 <LOW_LIMIT/>
 <HIGH_LIMIT/>
 <UNIT>DA</UNIT>
 <NON_NUMERIC_VALUE/>
 </AMOUNT>
 </MOLECULAR_WEIGHT>
 </POLYMERIZATION_AREA_GROUP>
<MODIFICATION_GROUP>
<STRUCTURAL_MODIFICATION>
 <RESIDUE_LABEL>A1</RESIDUE_LABEL>
 <MODIFIED_RES

> <DESC_PART2>
IDUE_INCHI>InChI=1S/C6H8He4O6/c7-12-1-2-3(11)4(14-8)5(15-9)6(13-2)16-10/h2-6,11H,1H2/t2-,3-,4+,5-,6-/m1/s1/i7+1,8+0,9+2,10-1</MODIFIED_RESIDUE_INCHI>
 <AMOUNT_TYPE/>
 <NUMBER_OF_FRAGMENTS_MOIETIES>1</NUMBER_OF_FRAGMENTS_MOIETIES>
<FRAGMENT_MOIETY>
 <LABEL>B1</LABEL>
<AMOUNT>
 <AVERAGE/>
 <LOW_LIMIT/>
 <HIGH_LIMIT/>
 <UNIT/>
 <NON_NUMERIC_VALUE/>
 </AMOUNT>
 </FRAGMENT_MOIETY>
<FRAGMENTS_CONNECTIVTY>
 <CONNECTIVITY>A1_6-3_B1</CONNECTIVITY>
 </FRAGMENTS_CONNECTIVTY>
<AMOUNT>
 <AVERAGE/>
 <LOW_LIMIT/>
 <HIGH_LIMIT/>
 <UNIT/>
 <NON_NUMERIC_VALUE/>
 </AMOUNT>
 </STRUCTURAL_MODIFICATION>
 </MODIFICATION_GROUP>
<MODIFICATION_GROUP>
<STRUCTURAL_MODIFICATION>
 <RESIDUE_LABEL>A2</RESIDUE_LABEL>
 <MODIFIED_RESIDUE_INCHI>InChI=1S/C6H9He3O6/c7-12-1-2-3(10)4(11)5(14-8)6(13-2)15-9/h2-6,10-11H,1H2/t2-,3-,4+,5-,6-/m1/s1/i7+0,8+1,9-1</MODIFIED_RESIDUE_INCHI>
 <AMOUNT_TYPE/>
 <NUMBER_OF_FRAGMENTS_MOIETIES>1</NUMBER_OF_FRAGMENTS_MOIETIES>
<FRAGMENT_MOIETY>
 <LABEL>B1</LABEL>
<AMOUNT>
 <AVERAGE/>
 <LOW_LIMIT/>
 <HIGH_LIMIT/>
 <UNIT/>
 <NON_NUMERIC_VALUE/>
 </AMOUNT>
 </FRAGMENT_MOIETY>
<FRAGMENTS_CONNECTIVTY>
 <CONNECTIVITY>A2_5-3_B1</CONNECTIVITY>
 </FRAGMENTS_CONNECTIVTY>
 </STRUCTURAL_MODIFICATION>
 </MODIFICATION_GROUP>
<MODIFICATION_GROUP>
<STRUCTURAL_MODIFICATION>
 <RESIDUE_LABEL>A1</RESIDUE_LABEL>
 <MODIFIED_RESIDUE_INCHI>InChI=1S/C6H8He4O6/c7-12-1-2-3(11)4(14-8)5(15-9)6(13-2)16-10/h2-6,11H,1H2/t2-,3-,4+,5-,6-/m1/s1/i7+1,8+0,9+2,10-1</MODIFIED_RESIDUE_INCHI>
 <AMOUNT_TYPE/>
 <NUMBER_OF_FRAGMENTS_MOIETIES>2</NUMBER_OF_FRAGMENTS_MOIETIES>
<FRAGMENT_MOIETY>
 <LABEL>B1</LABEL>
<AMOUNT>
 <AVERAGE/>
 <LOW_LIMIT/>
 <HIGH_LIMIT/>
 <UNIT/>
 <NON_NUMERIC_VALUE/>
 </AMOUNT>
 </FRAGMENT_MOIETY>
<FRAGMENT_MOIETY>
 <LABEL>C1</LABEL>
<AMOUNT>
 <AVERAGE/>
 <LOW_LIMIT/>
 <HIGH_LIMIT/>
 <UNIT/>
 <NON_NUMERIC_VALUE/>
 </AMOUNT>
 </FRAGMENT_MOIETY>
<FRAGMENTS_CONNECTIVTY>
 <CONNECTIVITY>A1_6-3_B1</CONNECTIVITY>
 <CONNECTIVITY>B1_4-3_C1</CONNECTIVITY>
 </FRAGMENTS_CONNECTIVTY>
 </STRUCTURAL_MODIFICATION>
 </MODIFICATION_GROUP>
<MODIFICATION_GROUP>
<STRUCTURAL_MODIFICATION>
 <RESIDUE_LABEL>A2</RESIDUE_LABEL>
 <MODIFIED_RESIDUE_INCHI>InChI=1S/C6H9He3O6/c7-12-1-2-3(10)4(11)5(14-8)6(13-2)15-9/h2-6,10-11H,1H2/t2-,3-,4+,5-,6-/m1/s1/i7+0,8+1,9-1</MODIFIED_RESIDUE_INCHI>
 <AMOUNT_TYPE/>
 <NUMBER_OF_FRAGMENTS_MOIETIES>2</NUMBER_OF_FRAGMENTS_MOIETIES>
<FRAGMENT_MOIETY>
 <LABEL>B1</LABEL>
<AMOUNT>
 <AVERAGE/>
 <LOW_LIMIT/>
 <HIGH_LIMIT/>
 <UNIT/>
 <NON_NUMERIC_VALUE/>
 </AMOUNT>
 </FRAGMENT_MOIETY>
<FRAGMENT_MOIETY>
 <LABEL>C1</LABEL>
<AMOUNT>
 <AVERAGE/>
 <LOW_LIMIT/>
 <HIGH_LIMIT/>
 <UNIT/>
 <NON_NUMERIC_VALUE/>
 </AMOUNT>
 </FRAGMENT_MOIETY>
<FRAGMENTS_CONNECTIVTY>
 <CONNECTIVITY>A2_5-3_B1</CONNECTIVITY>
 <CONNECTIVITY>B1_4-3_C1</CONNECTIVITY>
 </FRAGMENTS_CONNECTIVTY>
 </STRUCTURAL_MODIFICATION>
 </MODIFICATION_GROUP>
<MODIFICATION_GROUP>
<STRUCTURAL_MODIFICATION>
 <RESIDUE_LABEL>A1</RESIDUE_LABEL>
 <MODIFIED_RESIDUE_INCHI>InChI=1S/C6H8He4O6/c7-12-1-2-3(11)4(14-8)5(15-9)6(13-2)16-10/h2-6,11H,1H2/t2-,3-,4+,5-,6-/m1/s1/i7+1,8+0,9+2,10-1</MODIFIED_RESIDUE_INCHI>
 <AMOUNT_TYPE/>
 <NUMBER_OF_FRAGMENTS_MOIETIES>2</NUMBER_OF_FRAGMENTS_MOIETIES>
<FRAGMENT_MOIETY>
 <LABEL>B1</LABEL>
<AMOUNT>
 <AVERAGE/>
 <LOW_LIMIT/>
 <HIGH_LIMIT/>
 <UNIT/>
 <NON_NUMERIC_VALUE/>
 </AMOUNT>
 </FRAGMENT_MOIETY>
<FRAGMENT_MOIETY>
 <LABEL>D1</LABEL>
<AMOUNT>
 <AVERAGE/>
 <LOW_LIMIT/>
 <HIGH_LIMIT/>
 <UNIT/>
 <NON_NUMERIC_VALUE/>
 </AMOUNT>
 </FRAGMENT_MOIETY>
<FRAGMENTS_CONNECTIVTY>
 <CONNECTIVITY>A1_6-3_B1</CONNECTIVITY>
 <CONNECTIVITY>B1_4-3_D1</CONNECTIVITY>
 </FRAGMENTS_CONNECTIVTY>
 </STRUCTURAL_MODIFICATION>
 </MODIFICATION_GROUP>
<MODIFICATION_GROUP>
<STRUCTURAL_MODIFICATION>
 <RESIDUE_LABEL>A2</RESIDUE_LABEL>
 <MODIFIED_RESIDUE_INCHI>InChI=1S/C6H9He3O6/c7-12-1-2-3(10)4(11)5(14-8)6(13-2)15-9/h2-6,10-11H,1H2/t2-,3-,4+,5-,6-/m1/s1/i7+0,8+1,9-1</MODIF

> <DESC_PART3>
IED_RESIDUE_INCHI>
 <AMOUNT_TYPE/>
 <NUMBER_OF_FRAGMENTS_MOIETIES>2</NUMBER_OF_FRAGMENTS_MOIETIES>
<FRAGMENT_MOIETY>
 <LABEL>B1</LABEL>
<AMOUNT>
 <AVERAGE/>
 <LOW_LIMIT/>
 <HIGH_LIMIT/>
 <UNIT/>
 <NON_NUMERIC_VALUE/>
 </AMOUNT>
 </FRAGMENT_MOIETY>
<FRAGMENT_MOIETY>
 <LABEL>D1</LABEL>
<AMOUNT>
 <AVERAGE/>
 <LOW_LIMIT/>
 <HIGH_LIMIT/>
 <UNIT/>
 <NON_NUMERIC_VALUE/>
 </AMOUNT>
 </FRAGMENT_MOIETY>
<FRAGMENTS_CONNECTIVTY>
 <CONNECTIVITY>A2_5-3_B1</CONNECTIVITY>
 <CONNECTIVITY>B1_4-3_D1</CONNECTIVITY>
 </FRAGMENTS_CONNECTIVTY>
 </STRUCTURAL_MODIFICATION>
 </MODIFICATION_GROUP>
<MOLECULAR_WEIGHT>
 <MOLECULAR_WEIGHT_TYPE/>
 <MOLECULAR_WEIGHT_METHOD/>
<AMOUNT>
 <AVERAGE/>
 <LOW_LIMIT>15281</LOW_LIMIT>
 <HIGH_LIMIT>23454</HIGH_LIMIT>
 <UNIT>DA</UNIT>
 <NON_NUMERIC_VALUE/>
 </AMOUNT>
 </MOLECULAR_WEIGHT>
 <PUBLIC_DOMAIN/>
 <COMMENTS/>
 </POLYMER>
 </ELEMENT_TYPE>
 </SINGLE_SUBSTANCE>
 </SUBSTANCE>

> <CDBREGNO>
90780

> <STRUCTURE_ID>
54210

$$$$

  Symyx   06031522332D 1   1.00000     0.00000     0

 38 33  0     0  0            999 V2000
    4.4884   -6.9493    0.0000 C   0  0  0  0  0  0           0  0  0
    4.3014   -6.2049    0.0000 C   0  0  3  0  0  0           0  0  0
    3.9899   -7.4700    0.0000 O   0  0  0  0  0  0           0  0  0
    3.5636   -6.0234    0.0000 C   0  0  0  0  0  0           0  0  0
    5.2148   -7.1487    0.0000 O   0  0  0  0  0  0           0  0  0
    5.4104   -7.8783    0.0000 C   0  0  0  0  0  0           0  0  0
    7.9209   -9.9014    0.0000 C   0  0  3  0  0  0           0  0  0
    7.2063   -9.7018    0.0000 C   0  0  0  0  0  0           0  0  0
    6.1193   -8.0898    0.0000 C   0  0  0  0  0  0           0  0  0
    6.9988   -8.9666    0.0000 C   0  0  0  0  0  0           0  0  0
    6.2931   -8.7698    0.0000 C   0  0  0  0  0  0           0  0  0
    8.1195  -10.6338    0.0000 C   0  0  0  0  0  0           0  0  0
    8.4452   -9.3478    0.0000 C   0  0  0  0  0  0           0  0  0
    5.1365   -5.3697    0.0000 *   0  0  0  0  0  0           0  0  0
    2.5408   -6.6140    0.0000 *   0  0  0  0  0  0           0  0  0
   19.1392   -7.5096    0.0000 C   0  0  0  0  0  0           0  0  0
   19.5833   -6.9418    0.0000 C   0  0  3  0  0  0           0  0  0
   19.3496   -8.3565    0.0000 O   0  0  0  0  0  0           0  0  0
   20.3493   -6.9431    0.0000 C   0  0  0  0  0  0           0  0  0
   18.4577   -7.4949    0.0000 O   0  0  0  0  0  0           0  0  0
   19.4213   -6.2967    0.0000 C   0  0  0  0  0  0           0  0  0
   17.9905   -8.0922    0.0000 C   0  0  0  0  0  0           0  0  0
   17.0625   -6.6563    0.0000 *   0  0  0  0  0  0           0  0  0
   21.3964   -6.1687    0.0000 *   0  0  0  0  0  0           0  0  0
   15.6563  -11.8125    0.0000 I   0  0  0  0  0  0           0  0  0
   16.8374  -11.8125    0.0000 I   0  0  0  0  0  0           0  0  0
   15.8125  -13.7854    0.0000 Na  0  3  0  0  0  0           0  0  0
   16.0313  -16.1917    0.0000 I   0  5  0  0  0  0           0  0  0
   13.1104   -6.9083    0.0000 N   0  0  3  0  0  0           0  0  0
   12.5343   -7.4989    0.0000 C   0  0  0  0  0  0           0  0  0
   11.7380   -7.2917    0.0000 O   0  0  0  0  0  0           0  0  0
   12.9183   -8.2288    0.0000 C   0  0  0  0  0  0           0  0  0
   13.7351   -8.0909    0.0000 C   0  0  0  0  0  0           0  0  0
   13.8535   -7.2725    0.0000 C   0  0  0  0  0  0           0  0  0
   12.8816   -6.1138    0.0000 C   0  0  3  0  0  0           0  0  0
   12.0852   -5.9066    0.0000 C   0  0  0  0  0  0           0  0  0
   11.0624   -6.4971    0.0000 *   0  0  0  0  0  0           0  0  0
   13.7167   -5.2786    0.0000 *   0  0  0  0  0  0           0  0  0
  2  1  1  0     0  0
  3  1  2  0     0  0
  4  2  1  0     0  0
  5  1  1  0     0  0
  6  5  1  0     0  0
  7  8  1  0     0  0
  9  6  1  0     0  0
  8 10  1  0     0  0
 10 11  1  0     0  0
 11  9  1  0     0  0
 12  7  1  0     0  0
 13  7  1  0     0  0
  2 14  1  0     0  0
  4 15  1  0     0  0
 17 16  1  0     0  0
 18 16  2  0     0  0
 19 17  1  0     0  0
 20 16  1  0     0  0
 21 17  1  0     0  0
 22 20  1  0     0  0
 17 23  1  0     0  0
 19 24  1  0     0  0
 25 26  1  0     0  0
 30 29  1  0     0  0
 31 30  2  0     0  0
 32 30  1  0     0  0
 33 32  1  0     0  0
 34 29  1  0     0  0
 33 34  1  0     0  0
 35 29  1  0     0  0
 36 35  1  0     0  0
 36 37  1  0     0  0
 35 38  1  0     0  0
M  CHG  2  27   1  28  -1
M  STY  3   1 SRU   2 SRU   3 SRU
M  SLB  3   1   1   2   2   3   3
M  SCN  3   1 HT    2 HT    3 HT
M  SAL   1 13   1   2   3   4   5   6   7   8   9  10  11  12  13
M  SBL   1  2  13  14
M  SMT   1 A
M  SDI   1  4    3.0522   -6.7655    3.0522   -5.8720
M  SDI   1  4    4.2722   -5.7873    5.1657   -5.7873
M  SAL   2  7  16  17  18  19  20  21  22
M  SBL   2  2  21  22
M  SMT   2 C
M  SDI   2  4   18.3229   -7.2458   18.3229   -6.3523
M  SDI   2  4   20.8728   -6.1091   20.8728   -7.0026
M  SAL   3  8  29  30  31  32  33  34  35  36
M  SBL   3  2  32  33
M  SMT   3 B
M  SDI   3  4   11.5738   -6.6486   11.5738   -5.7551
M  SDI   3  4   12.8524   -5.6962   13.7459   -5.6962
M  END
> <SUBSTANCE_ID>
38660

> <UNII>
6E43AWY083

> <DESC_PART1>
<POLYMER>
 <POLYMER_CLASS>COPOLYMER</POLYMER_CLASS>
 <POLYMER_GEOMETRY>LINEAR</POLYMER_GEOMETRY>
 <COPOLYMER_SEQUENCE_TYPE>RANDOM</COPOLYMER_SEQUENCE_TYPE>
<MONOMER_DESCRIPTION>
 <NUMBER_OF_MONOMERS>3</NUMBER_OF_MONOMERS>
 <MONOMER_AMOUNT_TYPE>MOLE RATIO</MONOMER_AMOUNT_TYPE>
<MONOMER_GROUP>
 <MONOMER_ID>GU1V16S82F</MONOMER_ID>
 <MONOMER_NAME>ISOOCTYL ACRYLATE</MONOMER_NAME>
<AMOUNT>
 <AVERAGE/>
 <LOW_LIMIT/>
 <HIGH_LIMIT/>
 <UNIT/>
 <NON_NUMERIC_VALUE/>
 </AMOUNT>
 </MONOMER_GROUP>
<MONOMER_GROUP>
 <MONOMER_ID>76H9G81541</MONOMER_ID>
 <MONOMER_NAME>N-VINYLPYRROLIDINONE</MONOMER_NAME>
<AMOUNT>
 <AVERAGE/>
 <LOW_LIMIT/>
 <HIGH_LIMIT/>
 <UNIT/>
 <NON_NUMERIC_VALUE/>
 </AMOUNT>
 </MONOMER_GROUP>
<MONOMER_GROUP>
 <MONOMER_ID>196OC77688</MONOMER_ID>
 <MONOMER_NAME>N-VINYLPYRROLIDINONE</MONOMER_NAME>
<AMOUNT>
 <AVERAGE/>
 <LOW_LIMIT/>
 <HIGH_LIMIT/>
 <UNIT/>
 <NON_NUMERIC_VALUE/>
 </AMOUNT>
 </MONOMER_GROUP>
 </MONOMER_DESCRIPTION>
<STRUCTURAL_REPEAT_UNIT>
 <NUMBER_OF_STRUCTURAL_REPEAT_UNITS>3</NUMBER_OF_STRUCTURAL_REPEAT_UNITS>
 <STRUCTURAL_REPEAT_UNIT_AMOUNT_TYPE>MOLE PERCENT</STRUCTURAL_REPEAT_UNIT_AMOUNT_TYPE>
<STRUCTURAL_REPEAT_UNIT_GROUP>
 <ORIENTATION_OF_POLYMERIZATION>HEAD-TAIL</ORIENTATION_OF_POLYMERIZATION>
 <STRUCTURAL_REPEAT_UNIT>A</STRUCTURAL_REPEAT_UNIT>
<AMOUNT>
 <AVERAGE/>
 <LOW_LIMIT/>
 <HIGH_LIMIT/>
 <UNIT/>
 <NON_NUMERIC_VALUE/>
 </AMOUNT>
<DEGREE_POLYMERIZATION>
<AMOUNT>
 <AVERAGE/>
 <LOW_LIMIT/>
 <HIGH_LIMIT/>
 <UNIT/>
 <NON_NUMERIC_VALUE/>
 </AMOUNT>
 </DEGREE_POLYMERIZATION>
 </STRUCTURAL_REPEAT_UNIT_GROUP>
<STRUCTURAL_REPEAT_UNIT_GROUP>
 <ORIENTATION_OF_POLYMERIZATION>HEAD-TAIL</ORIENTATION_OF_POLYMERIZATION>
 <STRUCTURAL_REPEAT_UNIT>B</STRUCTURAL_REPEAT_UNIT>
<AMOUNT>
 <AVERAGE/>
 <LOW_LIMIT/>
 <HIGH_LIMIT/>
 <UNIT/>
 <NON_NUMERIC_VALUE/>
 </AMOUNT>
<DEGREE_POLYMERIZATION>
<AMOUNT>
 <AVERAGE/>
 <LOW_LIMIT/>
 <HIGH_LIMIT/>
 <UNIT/>
 <NON_NUMERIC_VALUE/>
 </AMOUNT>
 </DEGREE_POLYMERIZATION>
 </STRUCTURAL_REPEAT_UNIT_GROUP>
<STRUCTURAL_REPEAT_UNIT_GROUP>
 <ORIENTATION_OF_POLYMERIZATION>HEAD-TAIL</ORIENTATION_OF_POLYMERIZATION>
 <STRUCTURAL_REPEAT_UNIT>C</STRUCTURAL_REPEAT_UNIT>
<AMOUNT>
 <AVERAGE/>
 <LOW_LIMIT/>
 <HIGH_LIMIT/>
 <UNIT/>
 <NON_NUMERIC_VALUE/>
 </AMOUNT>
<DEGREE_POLYMERIZATION>
<AMOUNT>
 <AVERAGE/>
 <LOW_LIMIT/>
 <HIGH_LIMIT/>
 <UNIT/>
 <NON_NUMERIC_VALUE/>
 </AMOUNT>
 </DEGREE_POLYMERIZATION>
 </STRUCTURAL_REPEAT_UNIT_GROUP>
 </STRUCTURAL_REPEAT_UNIT>
<MOLECULAR_WEIGHT>
 <MOLECULAR_WEIGHT_TYPE/>
 <MOLECULAR_WEIGHT_METHOD/>
<AMOUNT>
 <AVERAGE>520000</AVERAGE>
 <LOW_LIMIT/>
 <HIGH_LIMIT/>
 <UNIT>Da</UNIT>
 <NON_NUMERIC_VALUE/>
 </AMOUNT>
 </MOLECULAR_WEIGHT>
<PROPERTY_GROUP>
 <PROPERTY_TYPE/>
 <PROPERTY/>
 <PROPERTY_MEASUREMENT_PARAMETERS/>
 <SUBSTANCE_NAME/>
 <SUBSTANCE_ID/>
 <AMOUNT_TYPE/>
<AMOUNT>
 <AVERAGE/>
 <LOW_LIMIT/>
 <HIGH_LIMIT/>
 <UNIT/>
 <NON_NUMERIC_VALUE/>
 </AMOUNT>
 </PROPERTY_GROUP>
<MODIFICATION_GROUP>
 <MODIFICATION_TYPE/>
<PHYSICAL_MODIFICATION>
 <ROLE/>
 <NUMBER_OF_PARAMETERS/>
<PARAMETER_GROUP>
 <PARAMETER/>
<AMOUNT>
 <AVERAGE/>
 <LOW_LIMIT/>
 <HIGH_LIMIT/>
 <UNIT/>
 <NON_NUMERIC_VALUE/>
 </AMOUNT>
 </PARAMETER_GROUP>
 </PHYSICAL_MODIFICATION>
<STRUCTURAL_MODIFICATION>
 <REPEATING_UNIT_MODIFIED/>
 <NUMBER_OF_FRAGMENTS_MOIETIES/>
 <AMOUNT_TYPE/>
<MOLECULAR_FRAGMENT_MOIETY>
 <STRUCTURAL_MODIFICATION_TYPE/>
 <ROLE/>
 <FRAGMENT_NUMBER/>
 <FRAGMENT_CONNECTIVTY/>
 <MOLECULAR_FRAGMENT_NAME/>
 <MOLECULAR_FRAGMENT_ID/>
<AMOUNT>
 <AVERAGE/>
 <LOW_LIMIT/>
 <HIGH_LIMIT/>
 <UNIT/>
 <NON_NUMERIC_VALUE/>
 </AMOUNT>
 </MOLECULAR_FRAGMENT_MOIETY>
 </STRUCTURAL_MODIFICATION>
<AGENT_MODIFICATION>
 <AGENT_MODIFICATION_TYPE/>
 <ROLE/>
 <MODIFICATION_AGENT>SODIUM IODIDE</MODIFICATION_AGENT>
 <MODIFICATION_AGENT_ID>F5WR8N145C</MODIFICATION_AGENT_ID>
 <MODIFICATION_PROCESS/>
 <AMOUNT_TYPE/>
<AMOUNT>
 <AVERAGE/>
 <LOW_LIMIT/>

> <DESC_PART2>
<HIGH_LIMIT/>
 <UNIT/>
 <NON_NUMERIC_VALUE/>
 </AMOUNT>
 </AGENT_MODIFICATION>
<AGENT_MODIFICATION>
 <AGENT_MODIFICATION_TYPE/>
 <ROLE/>
 <MODIFICATION_AGENT>IODINE</MODIFICATION_AGENT>
 <MODIFICATION_AGENT_ID>9679TC07X4</MODIFICATION_AGENT_ID>
 <MODIFICATION_PROCESS/>
 <AMOUNT_TYPE/>
<AMOUNT>
 <AVERAGE/>
 <LOW_LIMIT/>
 <HIGH_LIMIT/>
 <UNIT/>
 <NON_NUMERIC_VALUE/>
 </AMOUNT>
 </AGENT_MODIFICATION>
 </MODIFICATION_GROUP>
<SOURCE_MATERIAL>
 <SOURCE_MATERIAL_CLASS/>
 <SOURCE_MATERIAL_TYPE/>
 <SOURCE_MATERIAL_STATE/>
 <PARENT_SUBSTANCE_ID/>
 <PARENT_SUBSTANCE_NAME/>
 <DEVELOPMENTAL_STAGE/>
<PART_GROUP>
 <PART/>
 <PART_LOCATION/>
 </PART_GROUP>
<FRACTION>
 <MATERIAL_TYPE/>
 <FRACTION/>
 </FRACTION>
 </SOURCE_MATERIAL>
 <PUBLIC_DOMAIN/>
 <COMMENTS/>
 </POLYMER><POLYMER>
 <POLYMER_CLASS>COPOLYMER</POLYMER_CLASS>
 <POLYMER_GEOMETRY>LINEAR</POLYMER_GEOMETRY>
 <COPOLYMER_SEQUENCE_TYPE>RANDOM</COPOLYMER_SEQUENCE_TYPE>
<MONOMER_DESCRIPTION>
 <NUMBER_OF_MONOMERS>3</NUMBER_OF_MONOMERS>
 <MONOMER_AMOUNT_TYPE>MOLE RATIO</MONOMER_AMOUNT_TYPE>
<MONOMER_GROUP>
 <MONOMER_ID>GU1V16S82F</MONOMER_ID>
 <MONOMER_NAME>ISOOCTYL ACRYLATE</MONOMER_NAME>
<AMOUNT>
 <AVERAGE/>
 <LOW_LIMIT/>
 <HIGH_LIMIT/>
 <UNIT/>
 <NON_NUMERIC_VALUE/>
 </AMOUNT>
 </MONOMER_GROUP>
<MONOMER_GROUP>
 <MONOMER_ID>76H9G81541</MONOMER_ID>
 <MONOMER_NAME>N-VINYLPYRROLIDINONE</MONOMER_NAME>
<AMOUNT>
 <AVERAGE/>
 <LOW_LIMIT/>
 <HIGH_LIMIT/>
 <UNIT/>
 <NON_NUMERIC_VALUE/>
 </AMOUNT>
 </MONOMER_GROUP>
<MONOMER_GROUP>
 <MONOMER_ID>196OC77688</MONOMER_ID>
 <MONOMER_NAME>N-VINYLPYRROLIDINONE</MONOMER_NAME>
<AMOUNT>
 <AVERAGE/>
 <LOW_LIMIT/>
 <HIGH_LIMIT/>
 <UNIT/>
 <NON_NUMERIC_VALUE/>
 </AMOUNT>
 </MONOMER_GROUP>
 </MONOMER_DESCRIPTION>
<STRUCTURAL_REPEAT_UNIT>
 <NUMBER_OF_STRUCTURAL_REPEAT_UNITS>3</NUMBER_OF_STRUCTURAL_REPEAT_UNITS>
 <STRUCTURAL_REPEAT_UNIT_AMOUNT_TYPE>MOLE PERCENT</STRUCTURAL_REPEAT_UNIT_AMOUNT_TYPE>
<STRUCTURAL_REPEAT_UNIT_GROUP>
 <ORIENTATION_OF_POLYMERIZATION>HEAD-TAIL</ORIENTATION_OF_POLYMERIZATION>
 <STRUCTURAL_REPEAT_UNIT>A</STRUCTURAL_REPEAT_UNIT>
<AMOUNT>
 <AVERAGE/>
 <LOW_LIMIT/>
 <HIGH_LIMIT/>
 <UNIT/>
 <NON_NUMERIC_VALUE/>
 </AMOUNT>
<DEGREE_POLYMERIZATION>
<AMOUNT>
 <AVERAGE/>
 <LOW_LIMIT/>
 <HIGH_LIMIT/>
 <UNIT/>
 <NON_NUMERIC_VALUE/>
 </AMOUNT>
 </DEGREE_POLYMERIZATION>
 </STRUCTURAL_REPEAT_UNIT_GROUP>
<STRUCTURAL_REPEAT_UNIT_GROUP>
 <ORIENTATION_OF_POLYMERIZATION>HEAD-TAIL</ORIENTATION_OF_POLYMERIZATION>
 <STRUCTURAL_REPEAT_UNIT>B</STRUCTURAL_REPEAT_UNIT>
<AMOUNT>
 <AVERAGE/>
 <LOW_LIMIT/>
 <HIGH_LIMIT/>
 <UNIT/>
 <NON_NUMERIC_VALUE/>
 </AMOUNT>
<DEGREE_POLYMERIZATION>
<AMOUNT>
 <AVERAGE/>
 <LOW_LIMIT/>
 <HIGH_LIMIT/>
 <UNIT/>
 <NON_NUMERIC_VALUE/>
 </AMOUNT>
 </DEGREE_POLYMERIZATION>
 </STRUCTURAL_REPEAT_UNIT_GROUP>
<STRUCTURAL_REPEAT_UNIT_GROUP>
 <ORIENTATION_OF_POLYMERIZATION>HEAD-TAIL</ORIENTATION_OF_POLYMERIZATION>
 <STRUCTURAL_REPEAT_UNIT>C</STRUCTURAL_REPEAT_UNIT>
<AMOUNT>
 <AVERAGE/>
 <LOW_LIMIT/>
 <HIGH_LIMIT/>
 <UNIT/>
 <NON_NUMERIC_VALUE/>
 </AMOUNT>
<DEGREE_POLYMERIZATION>
<AMOUNT>
 <AVERAGE/>
 <LOW_LIMIT/>
 <HIGH_LIMIT/>
 <UNIT/>
 <NON_NUMERIC_VALUE/>
 </AMOUNT>
 </DEGREE_POLYMERIZATION>
 </STRUCTURAL_REPEAT_UNIT_GROUP>
 </STRUCTURAL_REPEAT_UNIT>
<MOLECULAR_WEIGHT>
 <MOLECULAR_WEIGHT_TYPE/>
 <MOLECULAR_WEIGHT_METHOD/>
<AMOUNT>
 <AVERAGE>520000</AVERAGE>
 <LOW_LIMIT/>
 <HIGH_LIMIT/>
 <UNIT>Da</UNIT>
 <NON_NUMERIC_VALUE/>
 </AMOUNT>
 </MOLECULAR_WEIGHT>
<PROPERTY_GROUP>
 <PROPERTY_TYPE/>
 <PROPERTY/>
 <PROPERTY_MEASUREMENT_PARAMETERS/>
 <SUBSTANCE_NAME/>
 <SUBSTANCE_ID/>
 <AMOUNT_TYPE/>
<AMOUNT>
 <AVERAGE/>
 <LOW_LIMIT/>
 <HIGH_LIMIT/>
 <UNIT/>
 <NON_NUMERIC_VALUE/>
 </AMOUNT>
 </PROPERTY_GROUP>
<MODIFICATION_GROUP>
 <MODIFICATION_TYPE/>
<PHYSICAL_MODIFICATION>
 <ROLE/>
 <NUMBER_OF_PARAMETERS/>
<PARAMETER_GROUP>
 <PARAMETER/>
<AMOUNT>
 <AVERAGE/>
 <LOW_LIMIT/>
 <HIG

> <DESC_PART3>
H_LIMIT/>
 <UNIT/>
 <NON_NUMERIC_VALUE/>
 </AMOUNT>
 </PARAMETER_GROUP>
 </PHYSICAL_MODIFICATION>
<STRUCTURAL_MODIFICATION>
 <REPEATING_UNIT_MODIFIED/>
 <NUMBER_OF_FRAGMENTS_MOIETIES/>
 <AMOUNT_TYPE/>
<MOLECULAR_FRAGMENT_MOIETY>
 <STRUCTURAL_MODIFICATION_TYPE/>
 <ROLE/>
 <FRAGMENT_NUMBER/>
 <FRAGMENT_CONNECTIVTY/>
 <MOLECULAR_FRAGMENT_NAME/>
 <MOLECULAR_FRAGMENT_ID/>
<AMOUNT>
 <AVERAGE/>
 <LOW_LIMIT/>
 <HIGH_LIMIT/>
 <UNIT/>
 <NON_NUMERIC_VALUE/>
 </AMOUNT>
 </MOLECULAR_FRAGMENT_MOIETY>
 </STRUCTURAL_MODIFICATION>
<AGENT_MODIFICATION>
 <AGENT_MODIFICATION_TYPE/>
 <ROLE/>
 <MODIFICATION_AGENT>SODIUM IODIDE</MODIFICATION_AGENT>
 <MODIFICATION_AGENT_ID>F5WR8N145C</MODIFICATION_AGENT_ID>
 <MODIFICATION_PROCESS/>
 <AMOUNT_TYPE/>
<AMOUNT>
 <AVERAGE/>
 <LOW_LIMIT/>
 <HIGH_LIMIT/>
 <UNIT/>
 <NON_NUMERIC_VALUE/>
 </AMOUNT>
 </AGENT_MODIFICATION>
<AGENT_MODIFICATION>
 <AGENT_MODIFICATION_TYPE/>
 <ROLE/>
 <MODIFICATION_AGENT>IODINE</MODIFICATION_AGENT>
 <MODIFICATION_AGENT_ID>9679TC07X4</MODIFICATION_AGENT_ID>
 <MODIFICATION_PROCESS/>
 <AMOUNT_TYPE/>
<AMOUNT>
 <AVERAGE/>
 <LOW_LIMIT/>
 <HIGH_LIMIT/>
 <UNIT/>
 <NON_NUMERIC_VALUE/>
 </AMOUNT>
 </AGENT_MODIFICATION>
 </MODIFICATION_GROUP>
<SOURCE_MATERIAL>
 <SOURCE_MATERIAL_CLASS/>
 <SOURCE_MATERIAL_TYPE/>
 <SOURCE_MATERIAL_STATE/>
 <PARENT_SUBSTANCE_ID/>
 <PARENT_SUBSTANCE_NAME/>
 <DEVELOPMENTAL_STAGE/>
<PART_GROUP>
 <PART/>
 <PART_LOCATION/>
 </PART_GROUP>
<FRACTION>
 <MATERIAL_TYPE/>
 <FRACTION/>
 </FRACTION>
 </SOURCE_MATERIAL>
 <PUBLIC_DOMAIN/>
 <COMMENTS/>
 </POLYMER>

> <COMMENTS>
USP DICTIONARY 2010  (1) 2-Propenoic acid, 2-methyl-, methyl ester, polymer with 1-ethenyl-2-pyrrolidinone and isooctyl 2-propenoate, compound with iodine and sodium iodide (NaI); (2) Methyl 2-methylprop-2-enoate polymer with 1-ethenylpyrrolidin-2-one and isooctyl prop-2-enoate compound with diiodine and sodium iodide. Molecular weight is approximately 520,000 daltons.

> <CDBREGNO>
106954

> <STRUCTURE_ID>
67229

$$$$

  Symyx   06031522332D 1   1.00000     0.00000     0

 35 34  0     1  0            999 V2000
    1.6479   -5.0969    0.0000 C   0  0  0  0  0  0           0  0  0
    2.6707   -5.6875    0.0000 O   0  0  0  0  0  0           0  0  0
    3.6936   -5.0969    0.0000 C   0  0  0  0  0  0           0  0  0
    4.7165   -5.6875    0.0000 C   0  0  0  0  0  0           0  0  0
    5.7393   -5.0969    0.0000 N   0  0  0  0  0  0           0  0  0
    6.7622   -5.6875    0.0000 C   0  0  0  0  0  0           0  0  0
    7.7851   -5.0969    0.0000 O   0  0  0  0  0  0           0  0  0
    8.8079   -5.6875    0.0000 C   0  0  0  0  0  0           0  0  0
    9.8308   -5.0969    0.0000 C   0  0  3  0  0  0           0  0  0
   10.8536   -5.6875    0.0000 C   0  0  0  0  0  0           0  0  0
   11.8765   -5.0969    0.0000 O   0  0  0  0  0  0           0  0  0
   12.8994   -5.6875    0.0000 C   0  0  0  0  0  0           0  0  0
   13.9222   -5.0969    0.0000 N   0  0  0  0  0  0           0  0  0
   14.9451   -5.6875    0.0000 C   0  0  0  0  0  0           0  0  0
   15.9680   -5.0969    0.0000 C   0  0  0  0  0  0           0  0  0
   16.9908   -5.6875    0.0000 O   0  0  0  0  0  0           0  0  0
   18.0137   -5.0969    0.0000 C   0  0  0  0  0  0           0  0  0
    6.7622   -6.8686    0.0000 O   0  0  0  0  0  0           0  0  0
    9.8308   -3.9158    0.0000 O   0  0  0  0  0  0           0  0  0
   10.4213   -2.8930    0.0000 C   0  0  0  0  0  0           0  0  0
   11.6024   -2.8930    0.0000 C   0  0  0  0  0  0           0  0  0
   12.1930   -1.8701    0.0000 C   0  0  0  0  0  0           0  0  0
   13.3741   -1.8701    0.0000 C   0  0  0  0  0  0           0  0  0
   13.9646   -0.8473    0.0000 O   0  0  0  0  0  0           0  0  0
   14.6521   -2.4555    0.0000 N   0  0  0  0  0  0           0  0  0
   12.8994   -6.8686    0.0000 O   0  0  0  0  0  0           0  0  0
   15.6750   -1.8649    0.0000 C   0  0  0  0  0  0           0  0  0
   16.6979   -2.4555    0.0000 C   0  0  0  0  0  0           0  0  0
   17.7207   -1.8649    0.0000 C   0  0  0  0  0  0           0  0  0
   18.7436   -2.4555    0.0000 C   0  0  0  0  0  0           0  0  0
   18.7436   -3.6366    0.0000 C   0  0  1  0  0  0           0  0  0
   19.7665   -4.2271    0.0000 C   0  0  0  0  0  0           0  0  0
   17.7207   -4.2271    0.0000 N   0  0  0  0  0  0           0  0  0
   20.7893   -3.6366    0.0000 O   0  0  0  0  0  0           0  0  0
   19.7665   -5.4082    0.0000 O   0  0  0  0  0  0           0  0  0
  1  2  1  0     0  0
  2  3  1  0     0  0
  3  4  1  0     0  0
  4  5  1  0     0  0
  5  6  1  0     0  0
  6  7  1  0     0  0
  7  8  1  0     0  0
  8  9  1  0     0  0
  9 10  1  0     0  0
 10 11  1  0     0  0
 11 12  1  0     0  0
 12 13  1  0     0  0
 13 14  1  0     0  0
 14 15  1  0     0  0
 15 16  1  0     0  0
 16 17  1  0     0  0
  6 18  2  0     0  0
  9 19  1  0     0  0
 19 20  1  0     0  0
 20 21  1  0     0  0
 21 22  1  0     0  0
 22 23  1  0     0  0
 23 24  2  0     0  0
 23 25  1  0     0  0
 12 26  2  0     0  0
 25 27  1  0     0  0
 27 28  1  0     0  0
 28 29  1  0     0  0
 29 30  1  0     0  0
 31 30  1  1     0  0
 31 32  1  0     0  0
 31 33  1  0     0  0
 32 34  2  0     0  0
 32 35  1  0     0  0
M  STY  4   1 GEN   2 DAT   3 GEN   4 DAT
M  SLB  4   1   1   2   2   3   3   4   4
M  SAL   1  3   2   3   4
M  SBL   1  2   1   4
M  SDI   1  4    2.1593   -5.9828    2.1593   -4.8017
M  SDI   1  4    5.2279   -4.8017    5.2279   -5.9828
M  SDT   2 fdareg_sgroup
M  SDD   2     0.0000    0.0000    DR    ALL  1       6
M  SED   2 A
M  SAL   3  3  14  15  16
M  SBL   3  2  13  16
M  SDI   3  4   14.4337   -5.9828   14.4337   -4.8017
M  SDI   3  4   17.5023   -4.8017   17.5023   -5.9828
M  SDT   4 fdareg_sgroup
M  SDD   4     0.0000    0.0000    DR    ALL  1       6
M  SED   4 B
M  SPL  2   2   1   4   3
M  END
> <SUBSTANCE_ID>
179941

> <UNII>
5X3GF74R79

> <DESC_PART1>
<PROTEIN>
 <SEQUENCE_TYPE>COMPLETE</SEQUENCE_TYPE>
 <NUMBER_OF_SUBUNITS>1</NUMBER_OF_SUBUNITS>
 <SUBUNIT_GROUP>
 <SUBUNIT>1</SUBUNIT>
 <LENGTH>2332</LENGTH>
 <SEQUENCE>ATRRYYLGAVELSWDYMQSDLGELPVDARFPPRVPKSFPFNTSVVYKKTLFVEFTDHLFNIAKPRPPWMGLLGPTIQAEVYDTVVITLKNMASHPVSLHAVGVSYWKASEGAEYDDQTSQREKEDDKVFPGGSHTYVWQVLKENGPMASDPLCLTYSYLSHVDLVKDLNSGLIGALLVCREGSLAKEKTQTLHKFILLFAVFDEGKSWHSETKNSLMQDRDAASARAWPKMHTVNGYVNRSLPGLIGCHRKSVYWHVIGMGTTPEVHSIFLEGHTFLVRNHRQASLEISPITFLTAQTLLMDLGQFLLFCHISSHQHDGMEAYVKVDSCPEEPQLRMKNNEEAEDYDDDLTDSEMDVVRFDDDNSPSFIQIRSVAKKHPKTWVHYIAAEEEDWDYAPLVLAPDDRSYKSQYLNNGPQRIGRKYKKVRFMAYTDETFKTREAIQHESGILGPLLYGEVGDTLLIIFKNQASRPYNIYPHGITDVRPLYSRRLPKGVKHLKDFPILPGEIFKYKWTVTVEDGPTKSDPRCLTRYYSSFVNMERDLASGLIGPLLICYKESVDQRGNQIMSDKRNVILFSVFDENRSWYLTENIQRFLPNPAGVQLEDPEFQASNIMHSINGYVFDSLQLSVCLHEVAYWYILSIGAQTDFLSVFFSGYTFKHKMVYEDTLTLFPFSGETVFMSMENPGLWILGCHNSDFRNRGMTALLKVSSCDKNTGDYYEDSYEDISAYLLSKNNAIEPRSFSQNSRHPSTRQKQFNATTIPENDIEKTDPWFAHRTPMPKIQNVSSSDLLMLLRQSPTPHGLSLSDLQEAKYETFSDDPSPGAIDSNNSLSEMTHFRPQLHHSGDMVFTPESGLQLRLNEKLGTTAATELKKLDFKVSSTSNNLISTIPSDNLAAGTDNTSSLGPPSMPVHYDSQLDTTLFGKKSSPLTESGGPLSLSEENNDSKLLESGLMNSQESSWGKNVSSTESGRLFKGKRAHGPALLTKDNALFKVSISLLKTNKTSNNSATNRKTHIDGPSLLIENSPSVWQNILESDTEFKKVTPLIHDRMLMDKNATALRLNHMSNKTTSSKNMEMVQQKKEGPIPPDAQNPDMSFFKMLFLPESARWIQRTHGKNSLNSGQGPSPKQLVSLGPEKSVEGQNFLSEKNKVVVGKGEFTKDVGLKEMVFPSSRNLFLTNLDNLHENNTHNQEKKIQEEIEKKETLIQENVVLPQIHTVTGTKNFMKNLFLLSTRQNVEGSYDGAYAPVLQDFRSLNDSTNRTKKHTAHFSKKGEEENLEGLGNQTKQIVEKYACTTRISPNTSQQNFVTQRSKRALKQFRLPLEETELEKRIIVDDTSTQWSKNMKHLTPSTLTQIDYNEKEKGAITQSPLSDCLTRSHSIPQANRSPLPIAKVSSFPSIRPIYLTRVLFQDNSSHLPAASYRKKDSGVQESSHFLQGAKKNNLSLAILTLEMTGDQREVGSLGTSATNSVTYKKVENTVLPKPDLPKTSGKVELLPKVHIYQKDLFPTETSNGSPGHLDLVEGSLLQGTEGAIKWNEANRPGKVPFLRVATESSAKTPSKLLDPLAWDNHYGTQIPKEEWKSQEKSPEKTAFKKKDTILSLNACESNHAIAAINEGQNKPEIEVTWAKQGRTERLCSQNPPVLKRHQREITRTTLQSDQEEIDYDDTISVEMKKEDFDIYDEDENQSPRSFQKKTRHYFIAAVERLWDYGMSSSPHVLRNRAQSGSVPQFKKVVFQEFTDGSFTQPLYRGELNEHLGLLGPYIRAEVEDNIMVTFRNQASRPYSFYSSLISYEEDQRQGAEPRKNFVKPNETKTYFWKVQHHMAPTKDEFDCKAWAYFSDVDLEKDVHSGLIGPLLVCHTNTLNPAHGRQVTVQEFALFFTIFDETKSWYFTENMERNCRAPCNIQMEDPTFKENYRFHAINGYIMDTLPGLVMAQDQRIRWYLLSMGSNENIHSIHFSGHVFTVRKKEEYKMALYNLYPGVFETVEMLPSKAGIWRVECLIGEHLHAGMSTLFLVYSNKCQTPLGMASGHIRDFQITASGQYGQWAPKLARLHYSGSINAWSTKEPFSWIKVDLLAPMIIHGIKTQGARQKFSSLYISQFIIMYSLDGKKWQTYRGNSTGTLMVFFGNVDSSGIKHNIFNPPIIARYIRLHPTHYSIRSTLRMELMGCDLNSCSMPLGMESKAISDAQITASSYFTNMFATWSPSKARLHLQGRSNAWRPQVNNPKEWLQVDFQKTMKVTGVTTQGVKSLLTSMYVKEFLISSSQDGHQWTLFFQNGKVKVFQGNQDSFTPVVNSLDPPLLTRYLRIHPQSWVHQIALRMEVLGCEAQDLY</SEQUENCE>
 </SUBUNIT_GROUP>
 <DISULFIDE_LINKAGE>1_153-1_179; 1_248-1_329; 1_528-1_554; 1_630-1_711; 1_1832-1_1858; 1_1899-1_1903; 1_2021-1_2169; 1_2174-1_2326</DISULFIDE_LINKAGE>
 <GLYCOSYLATION>
 <GLYCOSYLATION_TYPE>MAMMALIAN</GLYCOSYLATION_TYPE>
 <N_GLYCOSYLATION>1_41; 1_239; 1_582; 1_757; 1_784; 1_828; 1_900; 1_943; 1_963; 1_1001; 1_1005; 1_1055; 1_1066; 1_1185; 1_1255; 1_1259; 1_1282; 1_1300; 1_1412; 1_1442; 1_1810; 1_2118</N_GLYCOSYLATION>
 <O_GLYCOSYLATION></O_GLYCOSYLATION>
 <C_GLYCOSYLATION></C_GLYCOSYLATION>
 </GLYCOSYLATION>
 <MODIFICATION_GROUP>
 <PHYSICAL_MODIFICATION_GROUP>
 <ROLE />
 <NUMBER_OF_PARAMETERS>0</NUMBER_OF_PARAMETERS>
 <PARAMETER_GROUP>
 <PARAMETER />
 <AMOUNT>
 <AVERAGE />
 <LOW_LIMIT />
 <HIGH_LIMIT />
 <UNIT />
 <NON_NUMERIC_VALUE />
 </AMOUNT>
 </PARAMETER_GROUP>
 </PHYSICAL_MODIFICATION_GROUP>
 <AGENT_MODIFICATION_GROUP>
 <AGENT_MODIFICATION_TYPE />
 <ROLE />
 <MODIFICATION_AGENT />
 <MODIFICATION_AGENT_ID />
 <MODIFICATION_PROCESS />
 <AMOUNT_TYPE />
 <AMOUNT>
 <AVERAGE />
 <LOW_LIMIT />
 <HIGH_LIMIT />
 <UNIT />
 <NON_NUMERIC_VALUE />
 </AMOUNT>
 </AGENT_MODIFICATION_GROUP>
 <STRUCTURAL_MODIFICATION_GROUP>
 <RESIDUE_MODIFIED>Tyr</RESIDUE_MODIFIED>
 <RESIDUE_SITE>1_346; 1_718; 1_719; 1_723; 1_1664; 1_1680</RESIDUE_SITE>
 <NUMBER_OF_FRAGMENTS_MOIETIES />
 <AMOUNT_TYPE />
 <MOLECULAR_FRAGMENT_MOIETY>
 <STRUCTURAL_MODIFICATION_TYPE></STRUCTURAL_MODIFICATION_TYPE>
 <ROLE>AMINO ACID SUBSTITUTION<

> <DESC_PART2>
/ROLE>
 <FRAGMENT_NUMBER />
 <MOLECULAR_FRAGMENT_NAME />
 <MOLECULAR_FRAGMENT_ID />
 <MOLECULAR_FRAGMENT_INCHI>InChI=1S/C9H11NO6S/c10-8(9(11)12)5-6-1-3-7(4-2-6)16-17(13,14)15/h1-4,8H,5,10H2,(H,11,12)(H,13,14,15)/t8-/m0/s1</MOLECULAR_FRAGMENT_INCHI>
 <MOLFILE><![CDATA[
 ACCLDraw07181411412D

 17 17 0 0 1 0 0 0 0 0999 V2000
 6.9778 -4.7214 0.0000 C 0 0 0 0 0 0 0 0 0 0 0 0
 9.0201 -4.7208 0.0000 C 0 0 0 0 0 0 0 0 0 0 0 0
 8.0009 -4.1311 0.0000 C 0 0 0 0 0 0 0 0 0 0 0 0
 9.0201 -5.9023 0.0000 C 0 0 0 0 0 0 0 0 0 0 0 0
 6.9778 -5.9076 0.0000 C 0 0 0 0 0 0 0 0 0 0 0 0
 8.0034 -6.4918 0.0000 C 0 0 0 0 0 0 0 0 0 0 0 0
 10.0430 -6.4928 0.0000 C 0 0 0 0 0 0 0 0 0 0 0 0
 11.0658 -5.9023 0.0000 C 0 0 1 0 0 0 0 0 0 0 0 0
 12.0887 -6.4928 0.0000 C 0 0 0 0 0 0 0 0 0 0 0 0
 11.0658 -4.7212 0.0000 N 0 0 0 0 0 0 0 0 0 0 0 0
 13.1116 -5.9023 0.0000 O 0 0 0 0 0 0 0 0 0 0 0 0
 12.0887 -7.6739 0.0000 O 0 0 0 0 0 0 0 0 0 0 0 0
 5.9549 -4.1308 0.0000 O 0 0 0 0 0 0 0 0 0 0 0 0
 4.9320 -4.7214 0.0000 S 0 0 3 0 0 0 0 0 0 0 0 0
 3.9092 -4.1308 0.0000 O 0 0 0 0 0 0 0 0 0 0 0 0
 4.9320 -5.9025 0.0000 O 0 0 0 0 0 0 0 0 0 0 0 0
 5.9549 -5.3119 0.0000 O 0 0 0 0 0 0 0 0 0 0 0 0
 6 4 1 0 0 0 0
 5 6 2 0 0 0 0
 2 3 1 0 0 0 0
 1 5 1 0 0 0 0
 4 2 2 0 0 0 0
 3 1 2 0 0 0 0
 4 7 1 0 0 0 0
 7 8 1 0 0 0 0
 8 9 1 0 0 0 0
 8 10 1 6 0 0 0
 9 11 2 0 0 0 0
 9 12 1 0 0 0 0
 1 13 1 0 0 0 0
 13 14 1 0 0 0 0
 14 15 1 0 0 0 0
 14 16 2 0 0 0 0
 14 17 2 0 0 0 0
M END
]]></MOLFILE>
 <FRAGMENT_CONNECTIVTY>10; 9</FRAGMENT_CONNECTIVTY>
 <AMOUNT>
 <AVERAGE />
 <LOW_LIMIT />
 <HIGH_LIMIT />
 <UNIT />
 <NON_NUMERIC_VALUE />
 </AMOUNT>
 </MOLECULAR_FRAGMENT_MOIETY>
 </STRUCTURAL_MODIFICATION_GROUP>
 <STRUCTURAL_MODIFICATION_GROUP>
 <RESIDUE_MODIFIED>Lys</RESIDUE_MODIFIED>
 <RESIDUE_SITE />
 <NUMBER_OF_FRAGMENTS_MOIETIES />
 <AMOUNT_TYPE />
 <MOLECULAR_FRAGMENT_MOIETY>
 <STRUCTURAL_MODIFICATION_TYPE />
 <ROLE />
 <FRAGMENT_NUMBER />
 <MOLECULAR_FRAGMENT_NAME />
 <MOLECULAR_FRAGMENT_ID />
 <MOLECULAR_FRAGMENT_INCHI />
 <MOLFILE external="1"></MOLFILE>
 <FRAGMENT_CONNECTIVTY>33; 32</FRAGMENT_CONNECTIVTY>
 <POLYMER>
 <POLYMER_CLASS>HOMOPOLYMER</POLYMER_CLASS>
 <POLYMER_GEOMETRY>LINEAR</POLYMER_GEOMETRY>
 <COPOLYMER_SEQUENCE_TYPE></COPOLYMER_SEQUENCE_TYPE>
 <STRUCTURAL_REPEAT_UNIT>
 <NUMBER_OF_STRUCTURAL_REPEAT_UNITS>2</NUMBER_OF_STRUCTURAL_REPEAT_UNITS>
 <STRUCTURAL_REPEAT_UNIT_AMOUNT_TYPE>MOLE PERCENT</STRUCTURAL_REPEAT_UNIT_AMOUNT_TYPE>
 <STRUCTURAL_REPEAT_UNIT_GROUP>
 <ORIENTATION_OF_POLYMERIZATION>HEAD-TAIL</ORIENTATION_OF_POLYMERIZATION>
 <STRUCTURAL_REPEAT_UNIT>A</STRUCTURAL_REPEAT_UNIT>
 <DEGREE_POLYMERIZATION>
 <AMOUNT>
 <AVERAGE>230</AVERAGE>
 <LOW_LIMIT />
 <HIGH_LIMIT />
 <UNIT />
 <NON_NUMERIC_VALUE />
 </AMOUNT>
 </DEGREE_POLYMERIZATION>
 </STRUCTURAL_REPEAT_UNIT_GROUP>
 <STRUCTURAL_REPEAT_UNIT_GROUP>
 <ORIENTATION_OF_POLYMERIZATION>HEAD-TAIL</ORIENTATION_OF_POLYMERIZATION>
 <STRUCTURAL_REPEAT_UNIT>B</STRUCTURAL_REPEAT_UNIT>
 <DEGREE_POLYMERIZATION>
 <AMOUNT>
 <AVERAGE>230</AVERAGE>
 <LOW_LIMIT />
 <HIGH_LIMIT />
 <UNIT />
 <NON_NUMERIC_VALUE />
 </AMOUNT>
 </DEGREE_POLYMERIZATION>
 </STRUCTURAL_REPEAT_UNIT_GROUP>
 </STRUCTURAL_REPEAT_UNIT>
 </POLYMER>
 <AMOUNT>
 <AVERAGE />
 <LOW_LIMIT />
 <HIGH_LIMIT />
 <UNIT />
 <NON_NUMERIC_VALUE />
 </AMOUNT>
 </MOLECULAR_FRAGMENT_MOIETY>
 </STRUCTURAL_MODIFICATION_GROUP>
 </MODIFICATION_GROUP>
 <PROPERTY_GROUP>
 <PROPERTY_TYPE />
 <PROPERTY />
 <PROPERTY_DESCRIPTION>
 <SUBSTANCE_NAME />
 <SUBSTANCE_ID />
 <SUBSTANCE_ID />
 <AMOUNT_TYPE />
 <AMOUNT>
 <AVERAGE />
 <LOW_LIMIT />
 <HIGH_LIMIT />
 <UNIT />
 <NON_NUMERIC_VALUE />
 </AMOUNT>
 </PROPERTY_DESCRIPTION>
 </PROPERTY_GROUP>
 <MOLECULAR_WEIGHT>
 <MOLECULAR_WEIGHT_TYPE />
 <MOLECULAR_WEIGHT_METHOD />
 <AMOUNT>
 <AVERAGE />
 <LOW_LIMIT />
 <HIGH_LIMIT />
 <UNIT />
 <NON_NUMERIC_VALUE />
 </AMOUNT>
 </MOLECULAR_WEIGHT>
 <COMMENTS />
 <PUBLIC_DOMAIN /

> <DESC_PART3>
>
</PROTEIN>

> <CDBREGNO>
122235

> <STRUCTURE_ID>
81862

$$$$

  Symyx   06031522332D 1   1.00000     0.00000     0

 22 21  0     1  0            999 V2000
    1.6875   -5.0313    0.0000 O   0  0  0  0  0  0           0  0  0
    2.7104   -5.6218    0.0000 C   0  0  0  0  0  0           0  0  0
    3.7332   -5.0313    0.0000 C   0  0  0  0  0  0           0  0  0
    4.7561   -5.6218    0.0000 O   0  0  0  0  0  0           0  0  0
    5.7790   -5.0313    0.0000 C   0  0  0  0  0  0           0  0  0
    6.8018   -5.6218    0.0000 C   0  0  0  0  0  0           0  0  0
    7.8247   -5.0313    0.0000 C   0  0  0  0  0  0           0  0  0
    8.8476   -5.6218    0.0000 C   0  0  0  0  0  0           0  0  0
    9.8704   -5.0313    0.0000 C   0  0  0  0  0  0           0  0  0
   10.8933   -5.6218    0.0000 C   0  0  0  0  0  0           0  0  0
    0.6646   -5.6218    0.0000 C   0  0  0  0  0  0           0  0  0
   11.9161   -5.0313    0.0000 O   0  0  0  0  0  0           0  0  0
   10.8933   -6.8029    0.0000 N   0  0  0  0  0  0           0  0  0
   11.9161   -7.3935    0.0000 C   0  0  0  0  0  0           0  0  0
   12.9390   -6.8029    0.0000 C   0  0  0  0  0  0           0  0  0
   13.9619   -7.3935    0.0000 C   0  0  0  0  0  0           0  0  0
   14.9847   -6.8029    0.0000 C   0  0  0  0  0  0           0  0  0
   16.0076   -7.3935    0.0000 C   0  0  2  0  0  0           0  0  0
   15.8201   -8.4183    0.0000 N   0  0  0  0  0  0           0  0  0
   17.1485   -7.0878    0.0000 C   0  0  0  0  0  0           0  0  0
   17.4542   -5.9469    0.0000 O   0  0  0  0  0  0           0  0  0
   17.9836   -7.9229    0.0000 O   0  0  0  0  0  0           0  0  0
  1  2  1  0     0  0
  2  3  1  0     0  0
  3  4  1  0     0  0
  4  5  1  0     0  0
  5  6  1  0     0  0
  6  7  1  0     0  0
  7  8  1  0     0  0
  8  9  1  0     0  0
  9 10  1  0     0  0
  1 11  1  0     0  0
 10 12  2  0     0  0
 10 13  1  0     0  0
 13 14  1  0     0  0
 14 15  1  0     0  0
 15 16  1  0     0  0
 16 17  1  0     0  0
 18 17  1  1     0  0
 18 19  1  0     0  0
 18 20  1  0     0  0
 20 21  2  0     0  0
 20 22  1  0     0  0
M  STY  2   1 GEN   2 DAT
M  SLB  2   1   1   2   2
M  SAL   1  3   2   3   4
M  SBL   1  2   1   4
M  SDI   1  4    2.2000   -5.9200    2.2000   -4.7400
M  SDI   1  4    5.2700   -4.7400    5.2700   -5.9200
M  SDT   2 fdareg_sgroup
M  SDD   2     0.0000    0.0000    DR    ALL  1       6
M  SED   2 A
M  SPL  1   2   1
M  END
> <SUBSTANCE_ID>
179989

> <UNII>
N6UAH27EUV

> <DESC_PART1>
<PROTEIN>
 <SEQUENCE_TYPE>COMPLETE</SEQUENCE_TYPE>
 <NUMBER_OF_SUBUNITS>1</NUMBER_OF_SUBUNITS>
 <SUBUNIT_GROUP>
 <SUBUNIT>1</SUBUNIT>
 <LENGTH>565</LENGTH>
 <SEQUENCE>MKTLSQAQSKTSSQQFSFTGNSSANVIIGNQKLTINDVARVARNGTLVSLTNNTDILQGIQASCDYINNAVESGEPIYGVTSGFGGMANVAISREQASELQTNLVWFLKTGAGNKLPLADVRAAMLLRANSHMRGASGIRLELIKRMEIFLNAGVTPYVYEFGSIGXDLVPLSYITGSLIGLDPSFKVDFNGKEMDAPTALRQLNLSPLTLLPKEGLAMMNGTSVMTGIAANCVYDTQILTAIAMGVHALDIQALNGTNQSFHPFIHNSKPHPGQLWAADQMISLLANSQLVRDELDGKHDYRDHELIQDRYSLRCLPQYLGPIVDGISQIAKQIEIEINSVTDNPLIDVDNQASYHGGNFLGQYVGMGMDHLRYYIGLLAKHLDVQIALLASPEFSNGLPPSLLGNRERKVNMGLKGLQICGNSIMPLLTFYGNSIADRFPTHAEQFNQNINSQGYTSATLARRSVDIFQNYVAIALMFGVQAVDLRTYKKTGHYDARASLSPATERLYSAVRHVVGQKPTSDRPYIWNDNEQGLDEHIARISADIAAGGVIVQAVQDILPSLH</SEQUENCE>
 </SUBUNIT_GROUP>
 <DISULFIDE_LINKAGE></DISULFIDE_LINKAGE>
 <GLYCOSYLATION>
 <GLYCOSYLATION_TYPE></GLYCOSYLATION_TYPE>
 <N_GLYCOSYLATION></N_GLYCOSYLATION>
 <O_GLYCOSYLATION></O_GLYCOSYLATION>
 <C_GLYCOSYLATION></C_GLYCOSYLATION>
 </GLYCOSYLATION>
 <MODIFICATION_GROUP>
 <PHYSICAL_MODIFICATION_GROUP>
 <ROLE />
 <NUMBER_OF_PARAMETERS>0</NUMBER_OF_PARAMETERS>
 <PARAMETER_GROUP>
 <PARAMETER />
 <AMOUNT>
 <AVERAGE />
 <LOW_LIMIT />
 <HIGH_LIMIT />
 <UNIT />
 <NON_NUMERIC_VALUE />
 </AMOUNT>
 </PARAMETER_GROUP>
 </PHYSICAL_MODIFICATION_GROUP>
 <AGENT_MODIFICATION_GROUP>
 <AGENT_MODIFICATION_TYPE />
 <ROLE />
 <MODIFICATION_AGENT />
 <MODIFICATION_AGENT_ID />
 <MODIFICATION_PROCESS />
 <AMOUNT_TYPE />
 <AMOUNT>
 <AVERAGE />
 <LOW_LIMIT />
 <HIGH_LIMIT />
 <UNIT />
 <NON_NUMERIC_VALUE />
 </AMOUNT>
 </AGENT_MODIFICATION_GROUP>
 <STRUCTURAL_MODIFICATION_GROUP>
 <RESIDUE_MODIFIED />
 <RESIDUE_SITE>1_167</RESIDUE_SITE>
 <NUMBER_OF_FRAGMENTS_MOIETIES />
 <AMOUNT_TYPE></AMOUNT_TYPE>
 <MOLECULAR_FRAGMENT_MOIETY>
 <STRUCTURAL_MODIFICATION_TYPE />
 <ROLE>AMINO ACID SUBSTITUTION</ROLE>
 <FRAGMENT_NUMBER />
 <MOLECULAR_FRAGMENT_NAME />
 <MOLECULAR_FRAGMENT_ID />
 <MOLECULAR_FRAGMENT_INCHI>InChI=1S/C8H11N3O3/c1-4(9)7-10-5(2)8(14)11(7)3-6(12)13/h4H,2-3,9H2,1H3,(H,12,13)/t4-/m0/s1</MOLECULAR_FRAGMENT_INCHI>
 <MOLFILE><![CDATA[
 ACCLDraw07181423502D

 0 0 0 0 0 999 V3000
M V30 BEGIN CTAB
M V30 COUNTS 14 14 0 0 1
M V30 BEGIN ATOM
M V30 1 C 13.5965 -1.7817 0 0 
M V30 2 C 14.4317 -2.6168 0 0 
M V30 3 N 12.5553 -2.3252 0 0 
M V30 4 N 13.8295 -3.6599 0 0 CFG=3 
M V30 5 C 12.733 -3.4988 0 0 
M V30 6 C 11.7101 -4.0893 0 0 CFG=1 
M V30 7 N 10.6872 -3.4988 0 0 
M V30 8 C 11.7101 -5.2704 0 0 
M V30 9 C 13.9022 -0.6408 0 0 
M V30 10 O 15.6128 -2.6168 0 0 
M V30 11 C 14.42 -4.6827 0 0 
M V30 12 C 15.6011 -4.6827 0 0 
M V30 13 O 16.1917 -5.7056 0 0 
M V30 14 O 16.1917 -3.6599 0 0 
M V30 END ATOM
M V30 BEGIN BOND
M V30 1 1 4 5 
M V30 2 2 3 5 
M V30 3 1 2 4 
M V30 4 1 1 3 
M V30 5 1 1 2 
M V30 6 1 5 6 
M V30 7 1 6 7 
M V30 8 1 6 8 CFG=3 
M V30 9 2 1 9 
M V30 10 2 2 10 
M V30 11 1 4 11 
M V30 12 1 11 12 
M V30 13 1 12 13 
M V30 14 2 12 14 
M V30 END BOND
M V30 BEGIN COLLECTION
M V30 MDLV30/STEABS ATOMS=(1 6)
M V30 END COLLECTION
M V30 END CTAB
M END
]]></MOLFILE>
 <FRAGMENT_CONNECTIVTY>7; 12</FRAGMENT_CONNECTIVTY>
 <AMOUNT>
 <AVERAGE />
 <LOW_LIMIT />
 <HIGH_LIMIT />
 <UNIT />
 <NON_NUMERIC_VALUE />
 </AMOUNT>
 </MOLECULAR_FRAGMENT_MOIETY>
 </STRUCTURAL_MODIFICATION_GROUP>
 <STRUCTURAL_MODIFICATION_GROUP>
 <RESIDUE_MODIFIED>Lys</RESIDUE_MODIFIED>
 <RESIDUE_SITE>1_10; 1_32; 1_115; 1_145; 1_193; 1_299; 1_333; 1_411; 1_491; 1_492; 1_520</RESIDUE_SITE>
 <NUMBER_OF_FRAGMENTS_MOIETIES />
 <AMOUNT_TYPE>probability</AMOUNT_TYPE>
 <MOLECULAR_FRAGMENT_MOIETY>
 <STRUCTURAL_MODIFICATION_TYPE />
 <ROLE>AMINO ACID SUBSTITUTION</ROLE>
 <FRAGMENT_NUMBER />
 <MOLECULAR_FRAGMENT_NAME />
 <MOLECULAR_FRAGMENT_ID />
 <MOLECULAR_FRAGMENT_INCHI />
 <MOLFILE external="1"></MOLFILE>
 <FRAGMENT_CONNECTIVTY>19; 20</FRAGMENT_CONNECTIVTY>
 <POLYMER>
 <POLYMER_CLASS>HOMOPOLYMER</POLYMER_CLASS>
 <POLYMER_GEOMETRY>LINEAR</POLYMER_GEOMETRY>

> <DESC_PART2>
<COPOLYMER_SEQUENCE_TYPE></COPOLYMER_SEQUENCE_TYPE>
 <STRUCTURAL_REPEAT_UNIT>
 <NUMBER_OF_STRUCTURAL_REPEAT_UNITS>1</NUMBER_OF_STRUCTURAL_REPEAT_UNITS>
 <STRUCTURAL_REPEAT_UNIT_AMOUNT_TYPE>MOLE PERCENT</STRUCTURAL_REPEAT_UNIT_AMOUNT_TYPE>
 <STRUCTURAL_REPEAT_UNIT_GROUP>
 <ORIENTATION_OF_POLYMERIZATION>HEAD-TAIL</ORIENTATION_OF_POLYMERIZATION>
 <STRUCTURAL_REPEAT_UNIT>A</STRUCTURAL_REPEAT_UNIT>
 <DEGREE_POLYMERIZATION>
 <AMOUNT>
 <AVERAGE>120</AVERAGE>
 <LOW_LIMIT />
 <HIGH_LIMIT />
 <UNIT />
 <NON_NUMERIC_VALUE />
 </AMOUNT>
 </DEGREE_POLYMERIZATION>
 </STRUCTURAL_REPEAT_UNIT_GROUP>
 </STRUCTURAL_REPEAT_UNIT>
 </POLYMER>
 <AMOUNT>
 <AVERAGE>5/10</AVERAGE>
 <LOW_LIMIT />
 <HIGH_LIMIT />
 <UNIT />
 <NON_NUMERIC_VALUE />
 </AMOUNT>
 </MOLECULAR_FRAGMENT_MOIETY>
 </STRUCTURAL_MODIFICATION_GROUP>
 </MODIFICATION_GROUP>
 <PROPERTY_GROUP>
 <PROPERTY_TYPE />
 <PROPERTY />
 <PROPERTY_DESCRIPTION>
 <SUBSTANCE_NAME />
 <SUBSTANCE_ID />
 <SUBSTANCE_ID />
 <AMOUNT_TYPE />
 <AMOUNT>
 <AVERAGE />
 <LOW_LIMIT />
 <HIGH_LIMIT />
 <UNIT />
 <NON_NUMERIC_VALUE />
 </AMOUNT>
 </PROPERTY_DESCRIPTION>
 </PROPERTY_GROUP>
 <MOLECULAR_WEIGHT>
 <MOLECULAR_WEIGHT_TYPE />
 <MOLECULAR_WEIGHT_METHOD />
 <AMOUNT>
 <AVERAGE />
 <LOW_LIMIT />
 <HIGH_LIMIT />
 <UNIT />
 <NON_NUMERIC_VALUE />
 </AMOUNT>
 </MOLECULAR_WEIGHT>
 <COMMENTS />
 <PUBLIC_DOMAIN />
</PROTEIN>

> <CDBREGNO>
122257

> <STRUCTURE_ID>
81885

$$$$

  Symyx   06031522332D 1   1.00000     0.00000     0

 16 15  0     1  0            999 V2000
   14.1304   -3.0300    0.0000 H   0  0  0  0  0  0           0  0  0
   14.9098   -6.3755    0.0000 O   0  0  0  0  0  0           0  0  0
   12.1717   -6.3935    0.0000 N   0  0  0  0  0  0           0  0  0
   13.1049   -5.7112    0.0000 C   0  0  1  0  0  0           0  0  0
   13.1049   -4.5200    0.0000 C   0  0  0  0  0  0           0  0  0
   14.1304   -3.9287    0.0000 O   0  0  0  0  0  0           0  0  0
   14.0878   -6.3755    0.0000 C   0  0  0  0  0  0           0  0  0
   14.0878   -7.5637    0.0000 O   0  0  0  0  0  0           0  0  0
   11.1488   -5.8030    0.0000 C   0  0  0  0  0  0           0  0  0
   10.1259   -6.3935    0.0000 C   0  0  0  0  0  0           0  0  0
    9.1031   -5.8030    0.0000 C   0  0  0  0  0  0           0  0  0
    8.0802   -6.3935    0.0000 O   0  0  0  0  0  0           0  0  0
    7.0573   -5.8030    0.0000 C   0  0  0  0  0  0           0  0  0
    6.0345   -6.3935    0.0000 C   0  0  0  0  0  0           0  0  0
    5.0116   -5.8030    0.0000 O   0  0  0  0  0  0           0  0  0
    3.9888   -6.3935    0.0000 C   0  0  0  0  0  0           0  0  0
  6  1  1  0     0  0
  7  2  1  0     0  0
  3  4  1  0     0  0
  4  7  1  0     0  0
  5  6  1  0     0  0
  4  5  1  1     0  0
  7  8  2  0     0  0
  3  9  1  0     0  0
  9 10  1  0     0  0
 10 11  1  0     0  0
 11 12  1  0     0  0
 12 13  1  0     0  0
 13 14  1  0     0  0
 14 15  1  0     0  0
 15 16  1  0     0  0
M  STY  2   1 GEN   2 DAT
M  SLB  2   1   1   2   2
M  SAL   1  3  13  14  15
M  SBL   1  2  12  15
M  SDI   1  4    4.5002   -6.6674    4.5002   -5.5291
M  SDI   1  4    7.5687   -5.5291    7.5687   -6.6674
M  SDT   2 fdareg_sgroup
M  SDD   2     0.0000    0.0000    DR    ALL  1       6
M  SED   2 A
M  SPL  1   2   1
M  END
> <SUBSTANCE_ID>
180847

> <UNII>
WBA6V756JJ

> <DESC_PART1>
<PROTEIN>
 <SEQUENCE_TYPE>COMPLETE</SEQUENCE_TYPE>
 <NUMBER_OF_SUBUNITS>1</NUMBER_OF_SUBUNITS>
<SUBUNIT_GROUP>
 <SUBUNIT>1</SUBUNIT>
 <LENGTH>163</LENGTH>
 <SEQUENCE>SPAPPACDLRVLSKLLRDSHVLHSRLSQCPEVHPLPTPVLLPAVDFSLGEWKTQMEETKAQDILGAVTLLLEGVMAARGQLGPTCLSSLLGQLSGQVRLLLGALQSLLGTQLPPQGRTTAHKDPNAIFLSFQHLLRGKVRFLMLVGGSTLCVRRAPPTTAVPS</SEQUENCE>
 </SUBUNIT_GROUP>
 <DISULFIDE_LINKAGE>1_7-1_151; 1_29-1_85</DISULFIDE_LINKAGE>
<GLYCOSYLATION>
 <GLYCOSYLATION_TYPE/>
 <N_GLYCOSYLATION/>
 <O_GLYCOSYLATION/>
 <C_GLYCOSYLATION/>
 </GLYCOSYLATION>
<MODIFICATION_GROUP>
<PHYSICAL_MODIFICATION_GROUP>
 <ROLE/>
 <NUMBER_OF_PARAMETERS>0</NUMBER_OF_PARAMETERS>
<PARAMETER_GROUP>
 <PARAMETER/>
<AMOUNT>
 <AVERAGE/>
 <LOW_LIMIT/>
 <HIGH_LIMIT/>
 <UNIT/>
 <NON_NUMERIC_VALUE/>
 </AMOUNT>
 </PARAMETER_GROUP>
 </PHYSICAL_MODIFICATION_GROUP>
<AGENT_MODIFICATION_GROUP>
 <AGENT_MODIFICATION_TYPE/>
 <ROLE/>
 <MODIFICATION_AGENT/>
 <MODIFICATION_AGENT_ID/>
 <MODIFICATION_PROCESS/>
 <AMOUNT_TYPE/>
<AMOUNT>
 <AVERAGE/>
 <LOW_LIMIT/>
 <HIGH_LIMIT/>
 <UNIT/>
 <NON_NUMERIC_VALUE/>
 </AMOUNT>
 </AGENT_MODIFICATION_GROUP>
<STRUCTURAL_MODIFICATION_GROUP>
 <RESIDUE_MODIFIED>Ser</RESIDUE_MODIFIED>
 <RESIDUE_SITE>1_1</RESIDUE_SITE>
 <NUMBER_OF_FRAGMENTS_MOIETIES/>
 <AMOUNT_TYPE/>
<MOLECULAR_FRAGMENT_MOIETY>
 <STRUCTURAL_MODIFICATION_TYPE/>
 <ROLE>AMINO ACID SUBSTITUTION</ROLE>
 <FRAGMENT_NUMBER/>
 <MOLECULAR_FRAGMENT_NAME/>
 <MOLECULAR_FRAGMENT_ID/>
 <MOLECULAR_FRAGMENT_INCHI/>
 <MOLFILE external="1"/>
 <FRAGMENT_CONNECTIVTY>0; 7</FRAGMENT_CONNECTIVTY>
<POLYMER>
 <POLYMER_CLASS>HOMOPOLYMER</POLYMER_CLASS>
 <POLYMER_GEOMETRY>LINEAR</POLYMER_GEOMETRY>
 <COPOLYMER_SEQUENCE_TYPE/>
<STRUCTURAL_REPEAT_UNIT>
 <NUMBER_OF_STRUCTURAL_REPEAT_UNITS>1</NUMBER_OF_STRUCTURAL_REPEAT_UNITS>
 <STRUCTURAL_REPEAT_UNIT_AMOUNT_TYPE>MOLE PERCENT</STRUCTURAL_REPEAT_UNIT_AMOUNT_TYPE>
<STRUCTURAL_REPEAT_UNIT_GROUP>
 <ORIENTATION_OF_POLYMERIZATION>HEAD-TAIL</ORIENTATION_OF_POLYMERIZATION>
 <STRUCTURAL_REPEAT_UNIT>A</STRUCTURAL_REPEAT_UNIT>
<DEGREE_POLYMERIZATION>
<AMOUNT>
 <AVERAGE>454</AVERAGE>
 <LOW_LIMIT/>
 <HIGH_LIMIT/>
 <UNIT/>
 <NON_NUMERIC_VALUE/>
 </AMOUNT>
 </DEGREE_POLYMERIZATION>
 </STRUCTURAL_REPEAT_UNIT_GROUP>
 </STRUCTURAL_REPEAT_UNIT>
 </POLYMER>
<AMOUNT>
 <AVERAGE/>
 <LOW_LIMIT/>
 <HIGH_LIMIT/>
 <UNIT/>
 <NON_NUMERIC_VALUE/>
 </AMOUNT>
 </MOLECULAR_FRAGMENT_MOIETY>
 </STRUCTURAL_MODIFICATION_GROUP>
 </MODIFICATION_GROUP>
<PROPERTY_GROUP>
 <PROPERTY_TYPE/>
 <PROPERTY/>
<PROPERTY_DESCRIPTION>
 <SUBSTANCE_NAME/>
 <SUBSTANCE_ID/>
 <SUBSTANCE_ID/>
 <AMOUNT_TYPE/>
<AMOUNT>
 <AVERAGE/>
 <LOW_LIMIT/>
 <HIGH_LIMIT/>
 <UNIT/>
 <NON_NUMERIC_VALUE/>
 </AMOUNT>
 </PROPERTY_DESCRIPTION>
 </PROPERTY_GROUP>
<MOLECULAR_WEIGHT>
 <MOLECULAR_WEIGHT_TYPE/>
 <MOLECULAR_WEIGHT_METHOD/>
<AMOUNT>
 <AVERAGE>37505 </AVERAGE>
 <LOW_LIMIT/>
 <HIGH_LIMIT/>
 <UNIT>Da</UNIT>
 <NON_NUMERIC_VALUE/>
 </AMOUNT>
 </MOLECULAR_WEIGHT>
 <COMMENTS/>
 <PUBLIC_DOMAIN/>
 </PROTEIN>

> <CDBREGNO>
122589

> <STRUCTURE_ID>
82246

$$$$

  Symyx   06031522332D 1   1.00000     0.00000     0

 28 27  0     0  0            999 V2000
    3.1250   -6.3438    0.0000 C   0  0  0  0  0  0           0  0  0
    4.1479   -5.7532    0.0000 O   0  0  0  0  0  0           0  0  0
    5.1707   -6.3438    0.0000 C   0  0  0  0  0  0           0  0  0
    6.1936   -5.7532    0.0000 C   0  0  0  0  0  0           0  0  0
    7.2165   -6.3438    0.0000 O   0  0  0  0  0  0           0  0  0
    8.2393   -5.7532    0.0000 C   0  0  3  0  0  0           0  0  0
    9.2622   -6.3438    0.0000 C   0  0  0  0  0  0           0  0  0
   10.2851   -5.7532    0.0000 O   0  0  0  0  0  0           0  0  0
   10.2851   -4.5721    0.0000 C   0  0  0  0  0  0           0  0  0
    8.2393   -4.5721    0.0000 C   0  0  0  0  0  0           0  0  0
    7.2165   -3.9815    0.0000 O   0  0  0  0  0  0           0  0  0
    6.1936   -4.5721    0.0000 C   0  0  0  0  0  0           0  0  0
    5.1707   -3.9815    0.0000 C   0  0  0  0  0  0           0  0  0
    4.1479   -4.5721    0.0000 O   0  0  0  0  0  0           0  0  0
    3.1250   -3.9815    0.0000 C   0  0  0  0  0  0           0  0  0
   11.3079   -3.9815    0.0000 N   0  0  0  0  0  0           0  0  0
   12.3308   -4.5721    0.0000 C   0  0  0  0  0  0           0  0  0
   13.3536   -3.9815    0.0000 C   0  0  0  0  0  0           0  0  0
   14.3765   -4.5721    0.0000 C   0  0  0  0  0  0           0  0  0
   15.3994   -3.9815    0.0000 C   0  0  0  0  0  0           0  0  0
   16.4222   -4.5721    0.0000 C   0  0  0  0  0  0           0  0  0
   17.4451   -3.9815    0.0000 C   0  0  0  0  0  0           0  0  0
   18.4680   -4.5721    0.0000 O   0  0  0  0  0  0           0  0  0
    9.2622   -3.9815    0.0000 O   0  0  0  0  0  0           0  0  0
   19.4908   -3.9815    0.0000 P   0  0  3  0  0  0           0  0  0
   20.5137   -4.5721    0.0000 O   0  0  0  0  0  0           0  0  0
   19.4908   -2.8004    0.0000 O   0  0  0  0  0  0           0  0  0
   20.5137   -3.3910    0.0000 O   0  0  0  0  0  0           0  0  0
  1  2  1  0     0  0
  2  3  1  0     0  0
  3  4  1  0     0  0
  4  5  1  0     0  0
  5  6  1  0     0  0
  6  7  1  0     0  0
  7  8  1  0     0  0
  8  9  1  0     0  0
  6 10  1  0     0  0
 10 11  1  0     0  0
 11 12  1  0     0  0
 12 13  1  0     0  0
 13 14  1  0     0  0
 14 15  1  0     0  0
  9 16  1  0     0  0
 16 17  1  0     0  0
 17 18  1  0     0  0
 18 19  1  0     0  0
 19 20  1  0     0  0
 20 21  1  0     0  0
 21 22  1  0     0  0
 22 23  1  0     0  0
  9 24  2  0     0  0
 23 25  1  0     0  0
 25 26  2  0     0  0
 25 27  1  0     0  0
 25 28  1  0     0  0
M  STY  2   1 SRU   2 SRU
M  SLB  2   1   1   2   2
M  SCN  2   1 HT    2 HT
M  SAL   1  3  12  13  14
M  SBL   1  2  11  14
M  SMT   1 A
M  SDI   1  4    3.6364   -4.8674    3.6364   -3.6863
M  SDI   1  4    6.7050   -3.6863    6.7050   -4.8674
M  SAL   2  3   2   3   4
M  SBL   2  2   1   4
M  SMT   2 B
M  SDI   2  4    3.6364   -6.6390    3.6364   -5.4579
M  SDI   2  4    6.7050   -5.4579    6.7050   -6.6390
M  END
> <SUBSTANCE_ID>
189575

> <UNII>
K86ENL12I5

> <DESC_PART1>
<SUBSTANCE>
 <SUBSTANCE_ID/>
<SINGLE_SUBSTANCE>
<ELEMENT_TYPE>
<NUCLEIC_ACID>
 <SEQUENCE_TYPE>COMPLETE</SEQUENCE_TYPE>
 <NUMBER_OF_SUBUNITS>1</NUMBER_OF_SUBUNITS>
<SUBUNIT_GROUP>
 <SUBUNIT>1</SUBUNIT>
 <SUBUNIT_TYPE>LINEAR</SUBUNIT_TYPE>
 <LENGTH>39</LENGTH>
 <BASE_SEQUENCE>CGCCGCGGUCUCAGGCGCUGAGUCUGAGUUUACCUGCGT</BASE_SEQUENCE>
 <FIVE_PRIME_FRAGMENT_NAME/>
 <FIVE_PRIME_FRAGMENT_ID/>
 <THREE_PRIME_FRAGMENT_NAME/>
 <THREE_PRIME_FRAGMENT_ID/>
<SUGAR>
 <RESIDUES>1_39</RESIDUES>
 <SUGAR_NAME>.BETA.-D-2-DEOXYRIBOSE</SUGAR_NAME>
 <SUGAR_ID>Z9I45OZ8PJ</SUGAR_ID>
 <SUGAR_INCHI>InChI=1S/C5H10O4/c6-2-4-3(7)1-5(8)9-4/h3-8H,1-2H2/t3-,4+,5+/m0/s1</SUGAR_INCHI>
 </SUGAR>
<SUGAR>
 <RESIDUES>1_5; 1_17; 1_32</RESIDUES>
 <SUGAR_NAME>.BETA.-L-RIBOSE</SUGAR_NAME>
 <SUGAR_ID>856511Z6TO</SUGAR_ID>
 <SUGAR_INCHI>InChI=1S/C5H10O5/c6-1-2-3(7)4(8)5(9)10-2/h2-9H,1H2/t2-,3-,4-,5-/m0/s1</SUGAR_INCHI>
 </SUGAR>
<SUGAR>
 <RESIDUES>1_1; 1_3; 1_4; 1_6; 1_9-1_12; 1_16; 1_18; 1_19; 1_23-1_25; 1_29-1_31; 1_33-1_35; 1_37</RESIDUES>
 <SUGAR_NAME>2-DEOXY-2-FLUORO-.BETA.-D-RIBOFURANOSE</SUGAR_NAME>
 <SUGAR_ID>A58C9L6278</SUGAR_ID>
 <SUGAR_INCHI>InChI=1S/C5H9FO4/c6-3-4(8)2(1-7)10-5(3)9/h2-5,7-9H,1H2/t2-,3-,4-,5-/m1/s1</SUGAR_INCHI>
 </SUGAR>
<SUGAR>
 <RESIDUES>1_2; 1_7; 1_8; 1_13-1_15; 1_20-1_22; 1_26-1_28; 1_36; 1_38</RESIDUES>
 <SUGAR_NAME>2-O-METHYL-.BETA.-D-RIBOFURANOSE</SUGAR_NAME>
 <SUGAR_ID>AW90983458</SUGAR_ID>
 <SUGAR_INCHI>InChI=1S/C6H12O5/c1-10-5-4(8)3(2-7)11-6(5)9/h3-9H,2H2,1H3/t3-,4-,5-,6-/m1/s1</SUGAR_INCHI>
 </SUGAR>
<INTERNUCLEOTIDE_LINKAGE>
 <RESIDUES>1_2-1_38</RESIDUES>
 <LINKAGE>3'-5'</LINKAGE>
 <LINKAGE_NAME>SODIUM PHOSPHATE LINKAGE</LINKAGE_NAME>
 <LINKAGE_ID/>
 </INTERNUCLEOTIDE_LINKAGE>
<INTERNUCLEOTIDE_LINKAGE>
 <RESIDUES>1_38-1_39</RESIDUES>
 <LINKAGE>3'-3'</LINKAGE>
 <LINKAGE_NAME>SODIUM PHOSPHATE LINKAGE</LINKAGE_NAME>
 <LINKAGE_ID/>
 </INTERNUCLEOTIDE_LINKAGE>
<INTERNUCLEOTIDE_LINKAGE>
 <RESIDUES>1_1</RESIDUES>
 <LINKAGE/>
 <LINKAGE_NAME/>
 <LINKAGE_ID/>
 <MOLFILE external="1"/>
<POLYMER>
 <POLYMER_CLASS>HOMOPOLYMER</POLYMER_CLASS>
 <POLYMER_GEOMETRY>LINEAR</POLYMER_GEOMETRY>
 <COPOLYMER_SEQUENCE_TYPE/>
<STRUCTURAL_REPEAT_UNIT>
 <NUMBER_OF_STRUCTURAL_REPEAT_UNITS>2</NUMBER_OF_STRUCTURAL_REPEAT_UNITS>
 <STRUCTURAL_REPEAT_UNIT_AMOUNT_TYPE>MOLE PERCENT</STRUCTURAL_REPEAT_UNIT_AMOUNT_TYPE>
<STRUCTURAL_REPEAT_UNIT_GROUP>
 <ORIENTATION_OF_POLYMERIZATION>HEAD-TAIL</ORIENTATION_OF_POLYMERIZATION>
 <STRUCTURAL_REPEAT_UNIT>A</STRUCTURAL_REPEAT_UNIT>
<DEGREE_POLYMERIZATION>
<AMOUNT>
 <AVERAGE>450</AVERAGE>
 <LOW_LIMIT/>
 <HIGH_LIMIT/>
 <UNIT/>
 <NON_NUMERIC_VALUE/>
 </AMOUNT>
 </DEGREE_POLYMERIZATION>
 </STRUCTURAL_REPEAT_UNIT_GROUP>
<STRUCTURAL_REPEAT_UNIT_GROUP>
 <ORIENTATION_OF_POLYMERIZATION>HEAD-TAIL</ORIENTATION_OF_POLYMERIZATION>
 <STRUCTURAL_REPEAT_UNIT>B</STRUCTURAL_REPEAT_UNIT>
<DEGREE_POLYMERIZATION>
<AMOUNT>
 <AVERAGE>450</AVERAGE>
 <LOW_LIMIT/>
 <HIGH_LIMIT/>
 <UNIT/>
 <NON_NUMERIC_VALUE/>
 </AMOUNT>
 </DEGREE_POLYMERIZATION>
 </STRUCTURAL_REPEAT_UNIT_GROUP>
 </STRUCTURAL_REPEAT_UNIT>
 </POLYMER>
 </INTERNUCLEOTIDE_LINKAGE>
 </SUBUNIT_GROUP>
 <AREA_OF_HYBRIDISATION/>
<MOLECULAR_WEIGHT>
 <MOLECULAR_WEIGHT_TYPE>NUMBER</MOLECULAR_WEIGHT_TYPE>
 <MOLECULAR_WEIGHT_METHOD/>
<AMOUNT>
 <AVERAGE>53.5</AVERAGE>
 <LOW_LIMIT/>
 <HIGH_LIMIT/>
 <UNIT>kDa</UNIT>
 <NON_NUMERIC_VALUE/>
 </AMOUNT>
 </MOLECULAR_WEIGHT>
 </NUCLEIC_ACID>
 </ELEMENT_TYPE>
 </SINGLE_SUBSTANCE>
 </SUBSTANCE>

> <CDBREGNO>
127670

> <STRUCTURE_ID>
87247

$$$$

  Symyx   06031522332D 1   1.00000     0.00000     0

 16 15  0     1  0            999 V2000
   18.5590   -8.2015    0.0000 S   0  0  0  0  0  0           0  0  0
   17.5333   -8.7871    0.0000 C   0  0  0  0  0  0           0  0  0
   16.5133   -8.1916    0.0000 C   0  0  1  0  0  0           0  0  0
   17.5390   -7.6061    0.0000 H   0  0  0  0  0  0           0  0  0
   16.5191   -7.0105    0.0000 C   0  0  0  0  0  0           0  0  0
   15.4991   -6.4150    0.0000 O   0  0  0  0  0  0           0  0  0
   17.5448   -6.4249    0.0000 O   0  0  0  0  0  0           0  0  0
   15.4876   -8.7772    0.0000 N   0  0  0  0  0  0           0  0  0
   14.4676   -8.1816    0.0000 C   0  0  0  0  0  0           0  0  0
   13.4419   -8.7671    0.0000 C   0  0  0  0  0  0           0  0  0
   12.4219   -8.1717    0.0000 C   0  0  0  0  0  0           0  0  0
   11.3962   -8.7572    0.0000 O   0  0  0  0  0  0           0  0  0
   10.3763   -8.1616    0.0000 C   0  0  0  0  0  0           0  0  0
    9.3505   -8.7472    0.0000 C   0  0  0  0  0  0           0  0  0
    8.3305   -8.1517    0.0000 O   0  0  0  0  0  0           0  0  0
    7.3048   -8.7372    0.0000 C   0  0  0  0  0  0           0  0  0
  2  1  1  0     0  0
  3  2  1  6     0  0
  3  4  1  1     0  0
  3  5  1  0     0  0
  5  6  2  0     0  0
  5  7  1  0     0  0
  8  3  1  0     0  0
  8  9  1  0     0  0
  9 10  1  0     0  0
 10 11  1  0     0  0
 11 12  1  0     0  0
 12 13  1  0     0  0
 13 14  1  0     0  0
 14 15  1  0     0  0
 15 16  1  0     0  0
M  STY  1   1 SRU
M  SLB  1   1   1
M  SCN  1   1 HT
M  SAL   1  3  13  14  15
M  SBL   1  2  12  15
M  SMT   1 A
M  SDI   1  4    7.8176   -9.0350    7.8176   -7.8539
M  SDI   1  4   10.8862   -7.8689   10.8862   -9.0500
M  END
> <SUBSTANCE_ID>
181567

> <UNII>
6J022WTC4Y

> <DESC_PART1>
<PROTEIN>
 <SEQUENCE_TYPE>COMPLETE</SEQUENCE_TYPE>
 <NUMBER_OF_SUBUNITS>1</NUMBER_OF_SUBUNITS>
<SUBUNIT_GROUP>
 <SUBUNIT>1</SUBUNIT>
 <LENGTH>165</LENGTH>
 <SEQUENCE>CDLPQTHSLGSRRTLMLLAQMRRISLFSCLKDRHDFGFPQEEFGNQFQKAETIPVLHEMIQQIFNLFSTKDSSAAWDETLLDKFYTELYQQLNDLEACVIQGVGVTETPLMKEDSILAVRKYFQRITLYLKEKKYSPCAWEVVRAEIMRSFSLSTNLQESLRSKE</SEQUENCE>
 </SUBUNIT_GROUP>
 <DISULFIDE_LINKAGE>1_1-1_98; 1_29-1_138</DISULFIDE_LINKAGE>
<GLYCOSYLATION>
 <GLYCOSYLATION_TYPE/>
 <N_GLYCOSYLATION/>
 <O_GLYCOSYLATION/>
 <C_GLYCOSYLATION/>
 </GLYCOSYLATION>
<MODIFICATION_GROUP>
<PHYSICAL_MODIFICATION_GROUP>
 <ROLE/>
 <NUMBER_OF_PARAMETERS>0</NUMBER_OF_PARAMETERS>
<PARAMETER_GROUP>
 <PARAMETER/>
<AMOUNT>
 <AVERAGE/>
 <LOW_LIMIT/>
 <HIGH_LIMIT/>
 <UNIT/>
 <NON_NUMERIC_VALUE/>
 </AMOUNT>
 </PARAMETER_GROUP>
 </PHYSICAL_MODIFICATION_GROUP>
<AGENT_MODIFICATION_GROUP>
 <AGENT_MODIFICATION_TYPE/>
 <ROLE/>
 <MODIFICATION_AGENT/>
 <MODIFICATION_AGENT_ID/>
 <MODIFICATION_PROCESS/>
 <AMOUNT_TYPE/>
<AMOUNT>
 <AVERAGE/>
 <LOW_LIMIT/>
 <HIGH_LIMIT/>
 <UNIT/>
 <NON_NUMERIC_VALUE/>
 </AMOUNT>
 </AGENT_MODIFICATION_GROUP>
<STRUCTURAL_MODIFICATION_GROUP>
 <RESIDUE_MODIFIED>Cys</RESIDUE_MODIFIED>
 <RESIDUE_SITE>1_1</RESIDUE_SITE>
 <NUMBER_OF_FRAGMENTS_MOIETIES/>
 <AMOUNT_TYPE/>
<MOLECULAR_FRAGMENT_MOIETY>
 <STRUCTURAL_MODIFICATION_TYPE/>
 <ROLE>AMINO ACID SUBSTITUTION</ROLE>
 <FRAGMENT_NUMBER/>
 <MOLECULAR_FRAGMENT_NAME/>
 <MOLECULAR_FRAGMENT_ID/>
 <MOLECULAR_FRAGMENT_INCHI/>
 <MOLFILE external="1"/>
 <FRAGMENT_CONNECTIVTY>0; 5</FRAGMENT_CONNECTIVTY>
<POLYMER>
 <POLYMER_CLASS>HOMOPOLYMER</POLYMER_CLASS>
 <POLYMER_GEOMETRY>LINEAR</POLYMER_GEOMETRY>
 <COPOLYMER_SEQUENCE_TYPE/>
<STRUCTURAL_REPEAT_UNIT>
 <NUMBER_OF_STRUCTURAL_REPEAT_UNITS>1</NUMBER_OF_STRUCTURAL_REPEAT_UNITS>
 <STRUCTURAL_REPEAT_UNIT_AMOUNT_TYPE>MOLE PERCENT</STRUCTURAL_REPEAT_UNIT_AMOUNT_TYPE>
<STRUCTURAL_REPEAT_UNIT_GROUP>
 <ORIENTATION_OF_POLYMERIZATION>HEAD-TAIL</ORIENTATION_OF_POLYMERIZATION>
 <STRUCTURAL_REPEAT_UNIT>A</STRUCTURAL_REPEAT_UNIT>
<DEGREE_POLYMERIZATION>
<AMOUNT>
 <AVERAGE>450</AVERAGE>
 <LOW_LIMIT/>
 <HIGH_LIMIT/>
 <UNIT/>
 <NON_NUMERIC_VALUE/>
 </AMOUNT>
 </DEGREE_POLYMERIZATION>
 </STRUCTURAL_REPEAT_UNIT_GROUP>
 </STRUCTURAL_REPEAT_UNIT>
 </POLYMER>
<AMOUNT>
 <AVERAGE/>
 <LOW_LIMIT/>
 <HIGH_LIMIT/>
 <UNIT/>
 <NON_NUMERIC_VALUE/>
 </AMOUNT>
 </MOLECULAR_FRAGMENT_MOIETY>
 </STRUCTURAL_MODIFICATION_GROUP>
 </MODIFICATION_GROUP>
<PROPERTY_GROUP>
 <PROPERTY_TYPE/>
 <PROPERTY/>
<PROPERTY_DESCRIPTION>
 <SUBSTANCE_NAME/>
 <SUBSTANCE_ID/>
 <SUBSTANCE_ID/>
 <AMOUNT_TYPE/>
<AMOUNT>
 <AVERAGE/>
 <LOW_LIMIT/>
 <HIGH_LIMIT/>
 <UNIT/>
 <NON_NUMERIC_VALUE/>
 </AMOUNT>
 </PROPERTY_DESCRIPTION>
 </PROPERTY_GROUP>
<MOLECULAR_WEIGHT>
 <MOLECULAR_WEIGHT_TYPE>SEQUENCE</MOLECULAR_WEIGHT_TYPE>
 <MOLECULAR_WEIGHT_METHOD>CALCULATED</MOLECULAR_WEIGHT_METHOD>
<AMOUNT>
 <AVERAGE>39165</AVERAGE>
 <LOW_LIMIT/>
 <HIGH_LIMIT/>
 <UNIT>Da</UNIT>
 <NON_NUMERIC_VALUE/>
 </AMOUNT>
 </MOLECULAR_WEIGHT>
 <COMMENTS/>
 <PUBLIC_DOMAIN/>
 </PROTEIN>

> <CDBREGNO>
122928

> <STRUCTURE_ID>
82529

$$$$

  Symyx   06031522332D 1   1.00000     0.00000     0

 31 30  0     0  0            999 V2000
    3.3750   -2.8438    0.0000 C   0  0  0  0  0  0           0  0  0
    4.3979   -3.4343    0.0000 O   0  0  0  0  0  0           0  0  0
    5.4207   -2.8438    0.0000 C   0  0  0  0  0  0           0  0  0
    6.4436   -3.4343    0.0000 C   0  0  0  0  0  0           0  0  0
    7.4665   -2.8438    0.0000 O   0  0  0  0  0  0           0  0  0
    8.4893   -3.4343    0.0000 C   0  0  0  0  0  0           0  0  0
    9.5122   -2.8438    0.0000 C   0  0  0  0  0  0           0  0  0
   10.5351   -3.4343    0.0000 N   0  0  3  0  0  0           0  0  0
   11.5579   -2.8438    0.0000 C   0  0  0  0  0  0           0  0  0
   12.5808   -3.4343    0.0000 C   0  0  0  0  0  0           0  0  0
   13.6036   -2.8438    0.0000 N   0  0  0  0  0  0           0  0  0
   14.6265   -3.4343    0.0000 C   0  0  0  0  0  0           0  0  0
   15.6494   -2.8438    0.0000 C   0  0  0  0  0  0           0  0  0
   16.6722   -3.4343    0.0000 C   0  0  0  0  0  0           0  0  0
   17.6951   -2.8438    0.0000 C   0  0  0  0  0  0           0  0  0
   18.7180   -3.4343    0.0000 C   0  0  0  0  0  0           0  0  0
   19.7408   -2.8438    0.0000 C   0  0  0  0  0  0           0  0  0
    9.5122   -1.6626    0.0000 O   0  0  0  0  0  0           0  0  0
   12.5808   -4.6154    0.0000 O   0  0  0  0  0  0           0  0  0
   20.7637   -3.4343    0.0000 O   0  0  0  0  0  0           0  0  0
   21.7866   -2.8438    0.0000 P   0  0  3  0  0  0           0  0  0
   22.8094   -3.4343    0.0000 O   0  0  0  0  0  0           0  0  0
   21.7866   -1.6626    0.0000 O   0  0  0  0  0  0           0  0  0
   20.7637   -2.2532    0.0000 O   0  0  0  0  0  0           0  0  0
   10.5351   -4.6154    0.0000 C   0  0  0  0  0  0           0  0  0
    9.5122   -5.2060    0.0000 C   0  0  0  0  0  0           0  0  0
    8.4893   -4.6154    0.0000 O   0  0  0  0  0  0           0  0  0
    7.4665   -5.2060    0.0000 C   0  0  0  0  0  0           0  0  0
    6.4436   -4.6154    0.0000 C   0  0  0  0  0  0           0  0  0
    5.4207   -5.2060    0.0000 O   0  0  0  0  0  0           0  0  0
    4.3979   -4.6154    0.0000 C   0  0  0  0  0  0           0  0  0
  1  2  1  0     0  0
  2  3  1  0     0  0
  3  4  1  0     0  0
  4  5  1  0     0  0
  5  6  1  0     0  0
  6  7  1  0     0  0
  7  8  1  0     0  0
  8  9  1  0     0  0
  9 10  1  0     0  0
 10 11  1  0     0  0
 11 12  1  0     0  0
 12 13  1  0     0  0
 13 14  1  0     0  0
 14 15  1  0     0  0
 15 16  1  0     0  0
 16 17  1  0     0  0
  7 18  2  0     0  0
 10 19  2  0     0  0
 17 20  1  0     0  0
 20 21  1  0     0  0
 21 22  1  0     0  0
 21 23  2  0     0  0
 21 24  1  0     0  0
  8 25  1  0     0  0
 25 26  1  0     0  0
 26 27  1  0     0  0
 27 28  1  0     0  0
 28 29  1  0     0  0
 29 30  1  0     0  0
 30 31  1  0     0  0
M  STY  4   1 GEN   2 DAT   3 GEN   4 DAT
M  SLB  4   1   1   2   2   3   3   4   4
M  SAL   1  3   2   3   4
M  SBL   1  2   1   4
M  SDI   1  4    3.8864   -3.7296    3.8864   -2.5485
M  SDI   1  4    6.9550   -2.5485    6.9550   -3.7296
M  SDT   2 fdareg_sgroup
M  SDD   2     0.0000    0.0000    DR    ALL  1       6
M  SED   2 A
M  SAL   3  3  28  29  30
M  SBL   3  2  27  30
M  SDI   3  4    4.9093   -5.5012    4.9093   -4.3201
M  SDI   3  4    7.9779   -4.3201    7.9779   -5.5012
M  SDT   4 fdareg_sgroup
M  SDD   4     0.0000    0.0000    DR    ALL  1       6
M  SED   4 B
M  SPL  2   2   1   4   3
M  END
> <SUBSTANCE_ID>
182125

> <UNII>
CTL75X0V60

> <DESC_PART1>
<SUBSTANCE>
 <SUBSTANCE_ID/>
<SINGLE_SUBSTANCE>
<ELEMENT_TYPE>
<NUCLEIC_ACID>
 <SEQUENCE_TYPE>COMPLETE</SEQUENCE_TYPE>
 <NUMBER_OF_SUBUNITS>1</NUMBER_OF_SUBUNITS>
<SUBUNIT_GROUP>
 <SUBUNIT>1</SUBUNIT>
 <SUBUNIT_TYPE>LINEAR</SUBUNIT_TYPE>
 <LENGTH>44</LENGTH>
 <BASE_SEQUENCE>GCGCCGUAUGGGAUUAAGUAAAUGAGGAGUUGGAGGAAGGGCGC</BASE_SEQUENCE>
 <FIVE_PRIME_FRAGMENT_NAME/>
 <FIVE_PRIME_FRAGMENT_ID/>
 <THREE_PRIME_FRAGMENT_NAME/>
 <THREE_PRIME_FRAGMENT_ID/>
<SUGAR>
 <RESIDUES>1_1-1_44</RESIDUES>
 <SUGAR_NAME>.BETA.-L-RIBOSE</SUGAR_NAME>
 <SUGAR_ID>856511Z6TO</SUGAR_ID>
 <SUGAR_INCHI>InChI=1S/C5H10O5/c6-1-2-3(7)4(8)5(9)10-2/h2-9H,1H2/t2-,3-,4-,5-/m0/s1</SUGAR_INCHI>
 </SUGAR>
<INTERNUCLEOTIDE_LINKAGE>
 <RESIDUES>1_2-1_44</RESIDUES>
 <LINKAGE>3'-5'</LINKAGE>
 <LINKAGE_NAME>PHOSPHATE LINKAGE</LINKAGE_NAME>
 <LINKAGE_ID/>
 </INTERNUCLEOTIDE_LINKAGE>
<INTERNUCLEOTIDE_LINKAGE>
 <RESIDUES>1_1</RESIDUES>
 <LINKAGE/>
 <LINKAGE_NAME/>
 <LINKAGE_ID/>
 <MOLFILE external="1"/>
<POLYMER>
 <POLYMER_CLASS>HOMOPOLYMER</POLYMER_CLASS>
 <POLYMER_GEOMETRY>LINEAR</POLYMER_GEOMETRY>
 <COPOLYMER_SEQUENCE_TYPE/>
<STRUCTURAL_REPEAT_UNIT>
 <NUMBER_OF_STRUCTURAL_REPEAT_UNITS>2</NUMBER_OF_STRUCTURAL_REPEAT_UNITS>
 <STRUCTURAL_REPEAT_UNIT_AMOUNT_TYPE>MOLE PERCENT</STRUCTURAL_REPEAT_UNIT_AMOUNT_TYPE>
<STRUCTURAL_REPEAT_UNIT_GROUP>
 <ORIENTATION_OF_POLYMERIZATION>HEAD-TAIL</ORIENTATION_OF_POLYMERIZATION>
 <STRUCTURAL_REPEAT_UNIT>A</STRUCTURAL_REPEAT_UNIT>
<DEGREE_POLYMERIZATION>
<AMOUNT>
 <AVERAGE/>
 <LOW_LIMIT/>
 <HIGH_LIMIT/>
 <UNIT/>
 <NON_NUMERIC_VALUE/>
 </AMOUNT>
 </DEGREE_POLYMERIZATION>
 </STRUCTURAL_REPEAT_UNIT_GROUP>
<STRUCTURAL_REPEAT_UNIT_GROUP>
 <ORIENTATION_OF_POLYMERIZATION>HEAD-TAIL</ORIENTATION_OF_POLYMERIZATION>
 <STRUCTURAL_REPEAT_UNIT>B</STRUCTURAL_REPEAT_UNIT>
<DEGREE_POLYMERIZATION>
<AMOUNT>
 <AVERAGE/>
 <LOW_LIMIT/>
 <HIGH_LIMIT/>
 <UNIT/>
 <NON_NUMERIC_VALUE/>
 </AMOUNT>
 </DEGREE_POLYMERIZATION>
 </STRUCTURAL_REPEAT_UNIT_GROUP>
 </STRUCTURAL_REPEAT_UNIT>
 </POLYMER>
 </INTERNUCLEOTIDE_LINKAGE>
 </SUBUNIT_GROUP>
 <AREA_OF_HYBRIDISATION/>
<MOLECULAR_WEIGHT>
 <MOLECULAR_WEIGHT_TYPE>NUMBER</MOLECULAR_WEIGHT_TYPE>
 <MOLECULAR_WEIGHT_METHOD/>
<AMOUNT>
 <AVERAGE/>
 <LOW_LIMIT/>
 <HIGH_LIMIT/>
 <UNIT>kDa</UNIT>
 <NON_NUMERIC_VALUE/>
 </AMOUNT>
 </MOLECULAR_WEIGHT>
 </NUCLEIC_ACID>
 </ELEMENT_TYPE>
 </SINGLE_SUBSTANCE>
 </SUBSTANCE>

> <CDBREGNO>
122915

> <STRUCTURE_ID>
82575

$$$$

  Symyx   06031522332D 1   1.00000     0.00000     0

 31 30  0     0  0            999 V2000
    3.3750   -2.8438    0.0000 C   0  0  0  0  0  0           0  0  0
    4.3979   -3.4343    0.0000 O   0  0  0  0  0  0           0  0  0
    5.4207   -2.8438    0.0000 C   0  0  0  0  0  0           0  0  0
    6.4436   -3.4343    0.0000 C   0  0  0  0  0  0           0  0  0
    7.4665   -2.8438    0.0000 O   0  0  0  0  0  0           0  0  0
    8.4893   -3.4343    0.0000 C   0  0  0  0  0  0           0  0  0
    9.5122   -2.8438    0.0000 C   0  0  0  0  0  0           0  0  0
   10.5351   -3.4343    0.0000 N   0  0  3  0  0  0           0  0  0
   11.5579   -2.8438    0.0000 C   0  0  0  0  0  0           0  0  0
   12.5808   -3.4343    0.0000 C   0  0  0  0  0  0           0  0  0
   13.6036   -2.8438    0.0000 N   0  0  0  0  0  0           0  0  0
   14.6265   -3.4343    0.0000 C   0  0  0  0  0  0           0  0  0
   15.6494   -2.8438    0.0000 C   0  0  0  0  0  0           0  0  0
   16.6722   -3.4343    0.0000 C   0  0  0  0  0  0           0  0  0
   17.6951   -2.8438    0.0000 C   0  0  0  0  0  0           0  0  0
   18.7180   -3.4343    0.0000 C   0  0  0  0  0  0           0  0  0
   19.7408   -2.8438    0.0000 C   0  0  0  0  0  0           0  0  0
    9.5122   -1.6626    0.0000 O   0  0  0  0  0  0           0  0  0
   12.5808   -4.6154    0.0000 O   0  0  0  0  0  0           0  0  0
   20.7637   -3.4343    0.0000 O   0  0  0  0  0  0           0  0  0
   21.7866   -2.8438    0.0000 P   0  0  3  0  0  0           0  0  0
   22.8094   -3.4343    0.0000 O   0  0  0  0  0  0           0  0  0
   21.7866   -1.6626    0.0000 O   0  0  0  0  0  0           0  0  0
   20.7637   -2.2532    0.0000 O   0  0  0  0  0  0           0  0  0
   10.5351   -4.6154    0.0000 C   0  0  0  0  0  0           0  0  0
    9.5122   -5.2060    0.0000 C   0  0  0  0  0  0           0  0  0
    8.4893   -4.6154    0.0000 O   0  0  0  0  0  0           0  0  0
    7.4665   -5.2060    0.0000 C   0  0  0  0  0  0           0  0  0
    6.4436   -4.6154    0.0000 C   0  0  0  0  0  0           0  0  0
    5.4207   -5.2060    0.0000 O   0  0  0  0  0  0           0  0  0
    4.3979   -4.6154    0.0000 C   0  0  0  0  0  0           0  0  0
  1  2  1  0     0  0
  2  3  1  0     0  0
  3  4  1  0     0  0
  4  5  1  0     0  0
  5  6  1  0     0  0
  6  7  1  0     0  0
  7  8  1  0     0  0
  8  9  1  0     0  0
  9 10  1  0     0  0
 10 11  1  0     0  0
 11 12  1  0     0  0
 12 13  1  0     0  0
 13 14  1  0     0  0
 14 15  1  0     0  0
 15 16  1  0     0  0
 16 17  1  0     0  0
  7 18  2  0     0  0
 10 19  2  0     0  0
 17 20  1  0     0  0
 20 21  1  0     0  0
 21 22  1  0     0  0
 21 23  2  0     0  0
 21 24  1  0     0  0
  8 25  1  0     0  0
 25 26  1  0     0  0
 26 27  1  0     0  0
 27 28  1  0     0  0
 28 29  1  0     0  0
 29 30  1  0     0  0
 30 31  1  0     0  0
M  STY  4   1 GEN   2 DAT   3 GEN   4 DAT
M  SLB  4   1   1   2   2   3   3   4   4
M  SAL   1  3   2   3   4
M  SBL   1  2   1   4
M  SDI   1  4    3.8864   -3.7296    3.8864   -2.5485
M  SDI   1  4    6.9550   -2.5485    6.9550   -3.7296
M  SDT   2 fdareg_sgroup
M  SDD   2     0.0000    0.0000    DR    ALL  1       6
M  SED   2 A
M  SAL   3  3  28  29  30
M  SBL   3  2  27  30
M  SDI   3  4    4.9093   -5.5012    4.9093   -4.3201
M  SDI   3  4    7.9779   -4.3201    7.9779   -5.5012
M  SDT   4 fdareg_sgroup
M  SDD   4     0.0000    0.0000    DR    ALL  1       6
M  SED   4 B
M  SPL  2   2   1   4   3
M  END
> <SUBSTANCE_ID>
182441

> <UNII>
MTM792B442

> <DESC_PART1>
<SUBSTANCE>
 <SUBSTANCE_ID/>
<SINGLE_SUBSTANCE>
<ELEMENT_TYPE>
<NUCLEIC_ACID>
 <SEQUENCE_TYPE>COMPLETE</SEQUENCE_TYPE>
 <NUMBER_OF_SUBUNITS>1</NUMBER_OF_SUBUNITS>
<SUBUNIT_GROUP>
 <SUBUNIT>1</SUBUNIT>
 <SUBUNIT_TYPE>LINEAR</SUBUNIT_TYPE>
 <LENGTH>45</LENGTH>
 <BASE_SEQUENCE>GCGUGGUGUGAUCUAGAUGUAUUGGCUGAUCCUAGUCAGGUACGC</BASE_SEQUENCE>
 <FIVE_PRIME_FRAGMENT_NAME/>
 <FIVE_PRIME_FRAGMENT_ID/>
 <THREE_PRIME_FRAGMENT_NAME/>
 <THREE_PRIME_FRAGMENT_ID/>
<SUGAR>
 <RESIDUES>1_1-1_44</RESIDUES>
 <SUGAR_NAME>.BETA.-L-RIBOSE</SUGAR_NAME>
 <SUGAR_ID>856511Z6TO</SUGAR_ID>
 <SUGAR_INCHI>InChI=1S/C5H10O5/c6-1-2-3(7)4(8)5(9)10-2/h2-9H,1H2/t2-,3-,4-,5-/m0/s1</SUGAR_INCHI>
 </SUGAR>
<INTERNUCLEOTIDE_LINKAGE>
 <RESIDUES>1_2-1_44</RESIDUES>
 <LINKAGE>3'-5'</LINKAGE>
 <LINKAGE_NAME>PHOSPHATE LINKAGE</LINKAGE_NAME>
 <LINKAGE_ID/>
 </INTERNUCLEOTIDE_LINKAGE>
<INTERNUCLEOTIDE_LINKAGE>
 <RESIDUES>1_1</RESIDUES>
 <LINKAGE/>
 <LINKAGE_NAME/>
 <LINKAGE_ID/>
 <MOLFILE external="1"/>
<POLYMER>
 <POLYMER_CLASS>HOMOPOLYMER</POLYMER_CLASS>
 <POLYMER_GEOMETRY>LINEAR</POLYMER_GEOMETRY>
 <COPOLYMER_SEQUENCE_TYPE/>
<STRUCTURAL_REPEAT_UNIT>
 <NUMBER_OF_STRUCTURAL_REPEAT_UNITS>2</NUMBER_OF_STRUCTURAL_REPEAT_UNITS>
 <STRUCTURAL_REPEAT_UNIT_AMOUNT_TYPE>MOLE PERCENT</STRUCTURAL_REPEAT_UNIT_AMOUNT_TYPE>
<STRUCTURAL_REPEAT_UNIT_GROUP>
 <ORIENTATION_OF_POLYMERIZATION>HEAD-TAIL</ORIENTATION_OF_POLYMERIZATION>
 <STRUCTURAL_REPEAT_UNIT>A</STRUCTURAL_REPEAT_UNIT>
<DEGREE_POLYMERIZATION>
<AMOUNT>
 <AVERAGE/>
 <LOW_LIMIT/>
 <HIGH_LIMIT/>
 <UNIT/>
 <NON_NUMERIC_VALUE/>
 </AMOUNT>
 </DEGREE_POLYMERIZATION>
 </STRUCTURAL_REPEAT_UNIT_GROUP>
<STRUCTURAL_REPEAT_UNIT_GROUP>
 <ORIENTATION_OF_POLYMERIZATION>HEAD-TAIL</ORIENTATION_OF_POLYMERIZATION>
 <STRUCTURAL_REPEAT_UNIT>B</STRUCTURAL_REPEAT_UNIT>
<DEGREE_POLYMERIZATION>
<AMOUNT>
 <AVERAGE/>
 <LOW_LIMIT/>
 <HIGH_LIMIT/>
 <UNIT/>
 <NON_NUMERIC_VALUE/>
 </AMOUNT>
 </DEGREE_POLYMERIZATION>
 </STRUCTURAL_REPEAT_UNIT_GROUP>
 </STRUCTURAL_REPEAT_UNIT>
 </POLYMER>
 </INTERNUCLEOTIDE_LINKAGE>
 </SUBUNIT_GROUP>
 <AREA_OF_HYBRIDISATION/>
<MOLECULAR_WEIGHT>
 <MOLECULAR_WEIGHT_TYPE>NUMBER</MOLECULAR_WEIGHT_TYPE>
 <MOLECULAR_WEIGHT_METHOD/>
<AMOUNT>
 <AVERAGE/>
 <LOW_LIMIT/>
 <HIGH_LIMIT/>
 <UNIT>kDa</UNIT>
 <NON_NUMERIC_VALUE/>
 </AMOUNT>
 </MOLECULAR_WEIGHT>
 </NUCLEIC_ACID>
 </ELEMENT_TYPE>
 </SINGLE_SUBSTANCE>
 </SUBSTANCE>

> <CDBREGNO>
122915

> <STRUCTURE_ID>
82575

$$$$
> <SUBSTANCE_ID>
182413

> <UNII>
562JQF15GN

> <DESC_PART1>
<PROTEIN>
 <SEQUENCE_TYPE>COMPLETE</SEQUENCE_TYPE>
 <NUMBER_OF_SUBUNITS>4</NUMBER_OF_SUBUNITS>
<SUBUNIT_GROUP>
 <SUBUNIT>1</SUBUNIT>
 <LENGTH>447</LENGTH>
 <SEQUENCE>QVQLVQSGAEVVKPGASVKLSCKASGYIFTSYYMYWVKQAPGQGLEWIGEINPSNGDTNFNEKFKSKATLTVDKSASTAYMELSSLRSEDTAVYYCTRSDGRNDMDSWGQGTLVTVSSASTKGPSVFPLAPSSKSTSGGTAALGCLVKDYFPEPVTVSWNSGALTSGVHTFPAVLQSSGLYSLSSVVTVPSSSLGTQTYICNVNHKPSNTKVDKKVEPKSCDKTHTCPPCPAPELLGGPSVFLFPPKPKDTLMISRTPEVTCVVVDVSHEDPEVKFNWYVDGVEVHNAKTKPREEQYNSTYRVVSVLTVLHQDWLNGKEYKCKVSNKALPAPIEKTISKAKGQPREPQVYTLPPSRDELTKNQVSLTCLVKGFYPSDIAVEWESNGQPENNYKTTPPVLDSDGSFFLYSKLTVDKSRWQQGNVFSCSVMHEALHNHYTQKSLSLSPG</SEQUENCE>
 </SUBUNIT_GROUP>
<SUBUNIT_GROUP>
 <SUBUNIT>2</SUBUNIT>
 <LENGTH>447</LENGTH>
 <SEQUENCE>QVQLVQSGAEVVKPGASVKLSCKASGYIFTSYYMYWVKQAPGQGLEWIGEINPSNGDTNFNEKFKSKATLTVDKSASTAYMELSSLRSEDTAVYYCTRSDGRNDMDSWGQGTLVTVSSASTKGPSVFPLAPSSKSTSGGTAALGCLVKDYFPEPVTVSWNSGALTSGVHTFPAVLQSSGLYSLSSVVTVPSSSLGTQTYICNVNHKPSNTKVDKKVEPKSCDKTHTCPPCPAPELLGGPSVFLFPPKPKDTLMISRTPEVTCVVVDVSHEDPEVKFNWYVDGVEVHNAKTKPREEQYNSTYRVVSVLTVLHQDWLNGKEYKCKVSNKALPAPIEKTISKAKGQPREPQVYTLPPSRDELTKNQVSLTCLVKGFYPSDIAVEWESNGQPENNYKTTPPVLDSDGSFFLYSKLTVDKSRWQQGNVFSCSVMHEALHNHYTQKSLSLSPG</SEQUENCE>
 </SUBUNIT_GROUP>
<SUBUNIT_GROUP>
 <SUBUNIT>3</SUBUNIT>
 <LENGTH>218</LENGTH>
 <SEQUENCE>DIVLTQSPATLSVSPGERATISCRASQRVSSSTYSYMHWYQQKPGQPPKLLIKYASNLESGVPARFSGSGSGTDFTLTISSVEPEDFATYYCQHSWEIPPTFGGGTKLEIKRTVAAPSVFIFPPSDEQLKSGTASVVCLLNNFYPREAKVQWKVDNALQSGNSQESVTEQDSKDSTYSLSSTLTLSKADYEKHKVYACEVTHQGLSSPVTKSFNRGEC</SEQUENCE>
 </SUBUNIT_GROUP>
<SUBUNIT_GROUP>
 <SUBUNIT>4</SUBUNIT>
 <LENGTH>218</LENGTH>
 <SEQUENCE>DIVLTQSPATLSVSPGERATISCRASQRVSSSTYSYMHWYQQKPGQPPKLLIKYASNLESGVPARFSGSGSGTDFTLTISSVEPEDFATYYCQHSWEIPPTFGGGTKLEIKRTVAAPSVFIFPPSDEQLKSGTASVVCLLNNFYPREAKVQWKVDNALQSGNSQESVTEQDSKDSTYSLSSTLTLSKADYEKHKVYACEVTHQGLSSPVTKSFNRGEC</SEQUENCE>
 </SUBUNIT_GROUP>
 <DISULFIDE_LINKAGE>1_22-1_96; 1_145-1_201; 1_221-3_218; 1_227-2_227; 1_230-2_230; 1_262-1_322; 1_368-1_426; 2_22-2_96; 2_145-2_201; 2_221-4_218; 2_262-2_321; 2_368-2_426; 3_23-3_92; 3_138-3_198; 4_23-4_92; 4_138-4_198</DISULFIDE_LINKAGE>
<GLYCOSYLATION>
 <GLYCOSYLATION_TYPE/>
 <N_GLYCOSYLATION/>
 <O_GLYCOSYLATION/>
 <C_GLYCOSYLATION/>
 </GLYCOSYLATION>
<MODIFICATION_GROUP>
<PHYSICAL_MODIFICATION_GROUP>
 <ROLE/>
 <NUMBER_OF_PARAMETERS>0;</NUMBER_OF_PARAMETERS>
<PARAMETER_GROUP>
 <PARAMETER/>
<AMOUNT>
 <AVERAGE/>
 <LOW_LIMIT/>
 <HIGH_LIMIT/>
 <UNIT/>
 <NON_NUMERIC_VALUE/>
 </AMOUNT>
 </PARAMETER_GROUP>
 </PHYSICAL_MODIFICATION_GROUP>
<AGENT_MODIFICATION_GROUP>
 <AGENT_MODIFICATION_TYPE/>
 <ROLE/>
 <MODIFICATION_AGENT/>
 <MODIFICATION_AGENT_ID/>
 <MODIFICATION_PROCESS/>
 <AMOUNT_TYPE/>
<AMOUNT>
 <AVERAGE/>
 <LOW_LIMIT/>
 <HIGH_LIMIT/>
 <UNIT/>
 <NON_NUMERIC_VALUE/>
 </AMOUNT>
 </AGENT_MODIFICATION_GROUP>
<STRUCTURAL_MODIFICATION_GROUP>
 <RESIDUE_MODIFIED/>
 <RESIDUE_SITE/>
 <NUMBER_OF_FRAGMENTS_MOIETIES/>
 <AMOUNT_TYPE/>
<MOLECULAR_FRAGMENT_MOIETY>
 <STRUCTURAL_MODIFICATION_TYPE/>
 <ROLE/>
 <FRAGMENT_NUMBER/>
 <MOLECULAR_FRAGMENT_NAME/>
 <MOLECULAR_FRAGMENT_ID/>
 <MOLECULAR_FRAGMENT_INCHI/>
 <MOLFILE/>
 <FRAGMENT_CONNECTIVTY/>
<POLYMER>
 <POLYMER_CLASS/>
 <POLYMER_GEOMETRY/>
 <COPOLYMER_SEQUENCE_TYPE/>
<STRUCTURAL_REPEAT_UNIT>
 <NUMBER_OF_STRUCTURAL_REPEAT_UNITS/>
 <STRUCTURAL_REPEAT_UNIT_AMOUNT_TYPE/>
<STRUCTURAL_REPEAT_UNIT_GROUP>
 <ORIENTATION_OF_POLYMERIZATION/>
 <STRUCTURAL_REPEAT_UNIT/>
<DEGREE_POLYMERIZATION>
<AMOUNT>
 <AVERAGE/>
 <LOW_LIMIT/>
 <HIGH_LIMIT/>
 <UNIT/>
 <NON_NUMERIC_VALUE/>
 </AMOUNT>
 </DEGREE_POLYMERIZATION>
 </STRUCTURAL_REPEAT_UNIT_GROUP>
 </STRUCTURAL_REPEAT_UNIT>
 </POLYMER>
<AMOUNT>
 <AVERAGE/>
 <LOW_LIMIT/>
 <HIGH_LIMIT/>
 <UNIT/>
 <NON_NUMERIC_VALUE/>
 </AMOUNT>
 </MOLECULAR_FRAGMENT_MOIETY>
 </STRUCTURAL_MODIFICATION_GROUP>
 </MODIFICATION_GROUP>
<PROPERTY_GROUP>
 <PROPERTY_TYPE/>
 <PROPERTY/>
<PROPERTY_DESCRIPTION>
 <SUBSTANCE_NAME/>
 <SUBSTANCE_ID/>
 <SUBSTANCE_ID/>
 <AMOUNT_TYPE/>
<AMOUNT>

> <DESC_PART2>
<AVERAGE/>
 <LOW_LIMIT/>
 <HIGH_LIMIT/>
 <UNIT/>
 <NON_NUMERIC_VALUE/>
 </AMOUNT>
 </PROPERTY_DESCRIPTION>
 </PROPERTY_GROUP>
<MOLECULAR_WEIGHT>
 <MOLECULAR_WEIGHT_TYPE/>
 <MOLECULAR_WEIGHT_METHOD/>
<AMOUNT>
 <AVERAGE>145000</AVERAGE>
 <LOW_LIMIT/>
 <HIGH_LIMIT/>
 <UNIT>Da</UNIT>
 <NON_NUMERIC_VALUE>APPROXIMATE</NON_NUMERIC_VALUE>
 </AMOUNT>
 </MOLECULAR_WEIGHT>
 <COMMENTS/>
 <PUBLIC_DOMAIN/>
 </PROTEIN>

> <COMMENTS>
In Scifinder 3_214; 4_214; 3_148; 4_148 are labeled as Cys under disulfide bonds. But no Cys in these positions. 3_218; 4_218; 3_138; 4_138 are Cys. Assumed disulfide bridges are in these positions   Molecular weight is approximately 145448 daltons (with two additional N-linked glycans consisting of several glycoform species with an average molecular weight of approximately 1500 daltons

$$$$
> <SUBSTANCE_ID>
182411

> <UNII>
XLB16RJ01B

> <DESC_PART1>
<PROTEIN>
 <SEQUENCE_TYPE>COMPLETE</SEQUENCE_TYPE>
 <NUMBER_OF_SUBUNITS>4</NUMBER_OF_SUBUNITS>
<SUBUNIT_GROUP>
 <SUBUNIT>1</SUBUNIT>
 <LENGTH>447</LENGTH>
 <SEQUENCE>QVQLVQSGAEVKKPGASVKVSCKASGYTFTNNWMQWVRQAPGQGLEWMGAIFPGDDETRYTQKFRGKATITADTSTSTAYMELSSLRSEDTAVYYCGRGGKLRPFALDYWGQGTLVTVSSASTKGPSVFPLAPCSRSTSESTAALGCLVKDYFPEPVTVSWNSGALTSGVHTFPAVLQSSGLYSLSSVVTVPSSSLGTKTYTCNVDHKPSNTKVDKRVESKYGPPCPSCPAPEFLGGPSVFLFPPKPKDTLMISRTPEVTCVVVDVSQEDPEVQFNWYVDGVEVHNAKTKPREEQFNSTYRVVSVLTVLHQDWLNGKEYKCKVSNKGLPSSIEKTISKAKGQPREPQVYTLPPSQEEMTKNQVSLTCLVKGFYPSDIAVEWESNGQPENNYKTTPPVLDSDGSFFLYSRLTVDKSRWQEGNVFSCSVMHEALHNHYTQKSLSLSLGK</SEQUENCE>
 </SUBUNIT_GROUP>
<SUBUNIT_GROUP>
 <SUBUNIT>2</SUBUNIT>
 <LENGTH>447</LENGTH>
 <SEQUENCE>QVQLVQSGAEVKKPGASVKVSCKASGYTFTNNWMQWVRQAPGQGLEWMGAIFPGDDETRYTQKFRGKATITADTSTSTAYMELSSLRSEDTAVYYCGRGGKLRPFALDYWGQGTLVTVSSASTKGPSVFPLAPCSRSTSESTAALGCLVKDYFPEPVTVSWNSGALTSGVHTFPAVLQSSGLYSLSSVVTVPSSSLGTKTYTCNVDHKPSNTKVDKRVESKYGPPCPSCPAPEFLGGPSVFLFPPKPKDTLMISRTPEVTCVVVDVSQEDPEVQFNWYVDGVEVHNAKTKPREEQFNSTYRVVSVLTVLHQDWLNGKEYKCKVSNKGLPSSIEKTISKAKGQPREPQVYTLPPSQEEMTKNQVSLTCLVKGFYPSDIAVEWESNGQPENNYKTTPPVLDSDGSFFLYSRLTVDKSRWQEGNVFSCSVMHEALHNHYTQKSLSLSLGK</SEQUENCE>
 </SUBUNIT_GROUP>
<SUBUNIT_GROUP>
 <SUBUNIT>3</SUBUNIT>
 <LENGTH>218</LENGTH>
 <SEQUENCE>DIQMTQSPSSLSASVGDRVTITCRASESVESYGNNFMYWYQQKPGKAPKLLIYLASNLESGVPSRFSGSGSGTDFTLTISSLQPEDFATYYCHQDNEDPPTFGQGTKLEIKRTVAAPSVFIFPPSDEQLKSGTASVVCLLNNFYPREAKVQWKVDNALQSGNSQESVTEQDSKDSTYSLSSTLTLSKADYEKHKVYACEVTHQGLSSPVTKSFNRGEC</SEQUENCE>
 </SUBUNIT_GROUP>
<SUBUNIT_GROUP>
 <SUBUNIT>4</SUBUNIT>
 <LENGTH>218</LENGTH>
 <SEQUENCE>DIQMTQSPSSLSASVGDRVTITCRASESVESYGNNFMYWYQQKPGKAPKLLIYLASNLESGVPSRFSGSGSGTDFTLTISSLQPEDFATYYCHQDNEDPPTFGQGTKLEIKRTVAAPSVFIFPPSDEQLKSGTASVVCLLNNFYPREAKVQWKVDNALQSGNSQESVTEQDSKDSTYSLSSTLTLSKADYEKHKVYACEVTHQGLSSPVTKSFNRGEC</SEQUENCE>
 </SUBUNIT_GROUP>
 <DISULFIDE_LINKAGE>1_22-1_96; 1_134-3_218; 1_147-1_203; 1_226-2_226; 1_229-2_229; 1_261-1_321; 1_367-1_425; 2_22-2_96; 2_134-4_218; 2_147-2_203; 2_261-2_321; 2_367-2_425; 3_23-3_92; 3_138-3_198; 4_23-4_92; 4_138-4_198;</DISULFIDE_LINKAGE>
<GLYCOSYLATION>
 <GLYCOSYLATION_TYPE/>
 <N_GLYCOSYLATION/>
 <O_GLYCOSYLATION/>
 <C_GLYCOSYLATION/>
 </GLYCOSYLATION>
<MODIFICATION_GROUP>
<PHYSICAL_MODIFICATION_GROUP>
 <ROLE/>
 <NUMBER_OF_PARAMETERS>0</NUMBER_OF_PARAMETERS>
<PARAMETER_GROUP>
 <PARAMETER/>
<AMOUNT>
 <AVERAGE/>
 <LOW_LIMIT/>
 <HIGH_LIMIT/>
 <UNIT/>
 <NON_NUMERIC_VALUE/>
 </AMOUNT>
 </PARAMETER_GROUP>
 </PHYSICAL_MODIFICATION_GROUP>
<AGENT_MODIFICATION_GROUP>
 <AGENT_MODIFICATION_TYPE/>
 <ROLE/>
 <MODIFICATION_AGENT/>
 <MODIFICATION_AGENT_ID/>
 <MODIFICATION_PROCESS/>
 <AMOUNT_TYPE/>
<AMOUNT>
 <AVERAGE/>
 <LOW_LIMIT/>
 <HIGH_LIMIT/>
 <UNIT/>
 <NON_NUMERIC_VALUE/>
 </AMOUNT>
 </AGENT_MODIFICATION_GROUP>
<STRUCTURAL_MODIFICATION_GROUP>
 <RESIDUE_MODIFIED/>
 <RESIDUE_SITE/>
 <NUMBER_OF_FRAGMENTS_MOIETIES/>
 <AMOUNT_TYPE/>
<MOLECULAR_FRAGMENT_MOIETY>
 <STRUCTURAL_MODIFICATION_TYPE/>
 <ROLE/>
 <FRAGMENT_NUMBER/>
 <MOLECULAR_FRAGMENT_NAME/>
 <MOLECULAR_FRAGMENT_ID/>
 <MOLECULAR_FRAGMENT_INCHI/>
 <MOLFILE/>
 <FRAGMENT_CONNECTIVTY/>
<POLYMER>
 <POLYMER_CLASS/>
 <POLYMER_GEOMETRY/>
 <COPOLYMER_SEQUENCE_TYPE/>
<STRUCTURAL_REPEAT_UNIT>
 <NUMBER_OF_STRUCTURAL_REPEAT_UNITS/>
 <STRUCTURAL_REPEAT_UNIT_AMOUNT_TYPE/>
<STRUCTURAL_REPEAT_UNIT_GROUP>
 <ORIENTATION_OF_POLYMERIZATION/>
 <STRUCTURAL_REPEAT_UNIT/>
<DEGREE_POLYMERIZATION>
<AMOUNT>
 <AVERAGE/>
 <LOW_LIMIT/>
 <HIGH_LIMIT/>
 <UNIT/>
 <NON_NUMERIC_VALUE/>
 </AMOUNT>
 </DEGREE_POLYMERIZATION>
 </STRUCTURAL_REPEAT_UNIT_GROUP>
 </STRUCTURAL_REPEAT_UNIT>
 </POLYMER>
<AMOUNT>
 <AVERAGE/>
 <LOW_LIMIT/>
 <HIGH_LIMIT/>
 <UNIT/>
 <NON_NUMERIC_VALUE/>
 </AMOUNT>
 </MOLECULAR_FRAGMENT_MOIETY>
 </STRUCTURAL_MODIFICATION_GROUP>
 </MODIFICATION_GROUP>
<PROPERTY_GROUP>
 <PROPERTY_TYPE/>
 <PROPERTY/>
<PROPERTY_DESCRIPTION>
 <SUBSTANCE_NAME/>
 <SUBSTANCE_ID/>
 <SUBSTANCE_ID/>
 <AMOUNT_TYPE/>
<AMOUNT>

> <DESC_PART2>
<AVERAGE/>
 <LOW_LIMIT/>
 <HIGH_LIMIT/>
 <UNIT/>
 <NON_NUMERIC_VALUE/>
 </AMOUNT>
 </PROPERTY_DESCRIPTION>
 </PROPERTY_GROUP>
<MOLECULAR_WEIGHT>
 <MOLECULAR_WEIGHT_TYPE/>
 <MOLECULAR_WEIGHT_METHOD>Mass Spectrometry analysis</MOLECULAR_WEIGHT_METHOD>
<AMOUNT>
 <AVERAGE>148100</AVERAGE>
 <LOW_LIMIT/>
 <HIGH_LIMIT/>
 <UNIT>Da</UNIT>
 <NON_NUMERIC_VALUE>APPROXIMATE</NON_NUMERIC_VALUE>
 </AMOUNT>
 </MOLECULAR_WEIGHT>
 <COMMENTS/>
 <PUBLIC_DOMAIN/>
 </PROTEIN>

$$$$
> <SUBSTANCE_ID>
182241

> <UNII>
EXY242L98J

> <DESC_PART1>
<PROTEIN>
 <SEQUENCE_TYPE>COMPLETE</SEQUENCE_TYPE>
 <NUMBER_OF_SUBUNITS>1</NUMBER_OF_SUBUNITS>
 <SUBUNIT_GROUP>
 <SUBUNIT>1</SUBUNIT>
 <LENGTH>175</LENGTH>
 <SEQUENCE>MAPTYRASSLPQSFLLKSLEQVRKIQGDGAALQEKLCATYKLCHPEELVLLGHSLGIPWAPLSSCPSQALQLAGCLSQLHSGLFLYQGLLQALEGISPELGPTLDTLQLDVADFATTIWQQMEELGMAPALQPTQGAMPAFASAFQRRAGGVLVASHLQSFLEVSYRVLRHLAQP</SEQUENCE>
 </SUBUNIT_GROUP>
 <DISULFIDE_LINKAGE>1_37-1_43; 1_65-1_75</DISULFIDE_LINKAGE>
 <GLYCOSYLATION>
 <GLYCOSYLATION_TYPE />
 <N_GLYCOSYLATION />
 <O_GLYCOSYLATION />
 <C_GLYCOSYLATION />
 </GLYCOSYLATION>
 <MODIFICATION_GROUP>
 <PHYSICAL_MODIFICATION_GROUP>
 <ROLE />
 <NUMBER_OF_PARAMETERS>0</NUMBER_OF_PARAMETERS>
 <PARAMETER_GROUP>
 <PARAMETER />
 <AMOUNT>
 <AVERAGE />
 <LOW_LIMIT />
 <HIGH_LIMIT />
 <UNIT />
 <NON_NUMERIC_VALUE />
 </AMOUNT>
 </PARAMETER_GROUP>
 </PHYSICAL_MODIFICATION_GROUP>
 <AGENT_MODIFICATION_GROUP>
 <AGENT_MODIFICATION_TYPE />
 <ROLE />
 <MODIFICATION_AGENT />
 <MODIFICATION_AGENT_ID />
 <MODIFICATION_PROCESS />
 <AMOUNT_TYPE />
 <AMOUNT>
 <AVERAGE />
 <LOW_LIMIT />
 <HIGH_LIMIT />
 <UNIT />
 <NON_NUMERIC_VALUE />
 </AMOUNT>
 </AGENT_MODIFICATION_GROUP>
 <STRUCTURAL_MODIFICATION_GROUP>
 <RESIDUE_MODIFIED>Met</RESIDUE_MODIFIED>
 <RESIDUE_SITE>1_1</RESIDUE_SITE>
 <NUMBER_OF_FRAGMENTS_MOIETIES />
 <AMOUNT_TYPE />
 <MOLECULAR_FRAGMENT_MOIETY>
 <STRUCTURAL_MODIFICATION_TYPE />
 <ROLE>AMINO ACID SUBSTITUTION</ROLE>
 <FRAGMENT_NUMBER />
 <MOLECULAR_FRAGMENT_NAME />
 <MOLECULAR_FRAGMENT_ID />
 <MOLECULAR_FRAGMENT_INCHI />
 <MOLFILE><![CDATA[
 ACCLDraw08141412452D

 20 19 0 0 1 0 0 0 0 0999 V2000
 11.9454 -2.4213 0.0000 O 0 0 0 0 0 0 0 0 0 0 0 0
 10.0143 -4.2824 0.0000 O 0 0 0 0 0 0 0 0 0 0 0 0
 4.8606 -3.5388 0.0000 C 0 0 0 0 0 0 0 0 0 0 0 0
 5.5042 -3.1650 0.0000 O 0 0 0 0 0 0 0 0 0 0 0 0
 6.1480 -3.5388 0.0000 C 0 0 0 0 0 0 0 0 0 0 0 0
 6.7917 -3.1649 0.0000 C 0 0 0 0 0 0 0 0 0 0 0 0
 7.4353 -3.5388 0.0000 O 0 0 0 0 0 0 0 0 0 0 0 0
 8.0791 -2.4213 0.0000 O 0 0 0 0 0 0 0 0 0 0 0 0
 8.0791 -3.1649 0.0000 C 0 0 0 0 0 0 0 0 0 0 0 0
 8.7270 -3.5388 0.0000 C 0 0 0 0 0 0 0 0 0 0 0 0
 9.3706 -3.1649 0.0000 C 0 0 0 0 0 0 0 0 0 0 0 0
 10.0143 -3.5388 0.0000 C 0 0 0 0 0 0 0 0 0 0 0 0
 10.6580 -3.1649 0.0000 N 0 0 3 0 0 0 0 0 0 0 0 0
 9.7769 -5.5244 0.0000 C 0 0 0 0 0 0 0 0 0 0 0 0
 10.4743 -5.2704 0.0000 S 0 0 0 0 0 0 0 0 0 0 0 0
 10.6043 -4.5363 0.0000 C 0 0 0 0 0 0 0 0 0 0 0 0
 11.3017 -4.2824 0.0000 C 0 0 0 0 0 0 0 0 0 0 0 0
 11.3017 -3.5388 0.0000 C 0 0 1 0 0 0 0 0 0 0 0 0
 12.5932 -3.5388 0.0000 O 0 0 0 0 0 0 0 0 0 0 0 0
 11.9454 -3.1649 0.0000 C 0 0 0 0 0 0 0 0 0 0 0 0
 1 20 2 0 0 0 0
 12 2 2 0 0 0 0
 4 3 1 0 0 0 0
 5 4 1 0 0 0 0
 6 5 1 0 0 0 0
 7 6 1 0 0 0 0
 9 7 1 0 0 0 0
 9 8 2 0 0 0 0
 10 9 1 0 0 0 0
 11 10 1 0 0 0 0
 12 11 1 0 0 0 0
 12 13 1 0 0 0 0
 13 18 1 0 0 0 0
 14 15 1 0 0 0 0
 15 16 1 0 0 0 0
 16 17 1 0 0 0 0
 18 17 1 6 0 0 0
 18 20 1 0 0 0 0
 19 20 1 0 0 0 0
M STY 1 1 SRU
M SLB 1 1 1
M SCN 1 1 HT 
M SAL 1 3 6 4 5
M SBL 1 2 6 3
M SDI 1 4 5.1751 -3.7158 5.1751 -2.9741
M SDI 1 4 7.1084 -2.9741 7.1084 -3.7158
M SMT 1 A
M END
]]></MOLFILE>
 <FRAGMENT_CONNECTIVTY>0;20</FRAGMENT_CONNECTIVTY>
 <POLYMER>
 <POLYMER_CLASS>HOMOPOLYMER</POLYMER_CLASS>
 <POLYMER_GEOMETRY>LINEAR</POLYMER_GEOMETRY>
 <COPOLYMER_SEQUENCE_TYPE />
 <STRUCTURAL_REPEAT_UNIT>
 <NUMBER_OF_STRUCTURAL_REPEAT_UNITS>1</NUMBER_OF_STRUCTURAL_REPEAT_UNITS>
 <STRUCTURAL_REPEAT_UNIT_AMOUNT_TYPE>MOLE PERCENT</STRUCTURAL_REPEAT_UNIT_AMOUNT_TYPE>
 <STRUCTURAL_REPEAT_UNIT_GROUP>
 <ORIENTATION_OF_POLYMERIZATION>HEAD-TAIL</ORIENTATION_OF_POLYMERIZATION>
 <STRUCTURAL_REPEAT_UNIT>A</STRUCTURAL_REPEAT_UNIT>
 <DEGREE_POLYMERIZATION>
 <AMOUNT>
 <AVERAGE />
 <LOW_LIMIT />
 <HIGH_LIMIT />
 <UNIT />
 <NON_NUMERIC_VALUE />
 </AMOUNT>
 </DEGREE_POLYMERIZATION>
 </STRUCTURAL_REPEAT_UNIT_GROUP>
 </STRUCTURAL_REPEAT_UNIT>
 </POLYMER>
 <AMOUNT>
 <AVERAGE />
 <LOW_LIMIT />
 <HIGH_LIMIT />
 <UN

> <DESC_PART2>
IT />
 <NON_NUMERIC_VALUE />
 </AMOUNT>
 </MOLECULAR_FRAGMENT_MOIETY>
 </STRUCTURAL_MODIFICATION_GROUP>
 <STRUCTURAL_MODIFICATION_GROUP>
 <RESIDUE_MODIFIED>Lys</RESIDUE_MODIFIED>
 <RESIDUE_SITE>1_17; 1_18; 1_35</RESIDUE_SITE>
 <NUMBER_OF_FRAGMENTS_MOIETIES />
 <AMOUNT_TYPE />
 <MOLECULAR_FRAGMENT_MOIETY>
 <STRUCTURAL_MODIFICATION_TYPE />
 <ROLE>AMINO ACID SUBSTITUTION</ROLE>
 <FRAGMENT_NUMBER />
 <MOLECULAR_FRAGMENT_NAME />
 <MOLECULAR_FRAGMENT_ID />
 <MOLECULAR_FRAGMENT_INCHI />
 <MOLFILE><![CDATA[
 ACCLDraw08141412442D

 21 20 0 0 1 0 0 0 0 0999 V2000
 12.8303 -2.9356 0.0000 O 0 0 0 0 0 0 0 0 0 0 0 0
 12.1866 -4.7966 0.0000 N 0 0 0 0 0 0 0 0 0 0 0 0
 8.3161 -4.7966 0.0000 O 0 0 0 0 0 0 0 0 0 0 0 0
 6.3850 -2.9356 0.0000 O 0 0 0 0 0 0 0 0 0 0 0 0
 3.1623 -4.0530 0.0000 C 0 0 0 0 0 0 0 0 0 0 0 0
 3.8061 -3.6792 0.0000 O 0 0 0 0 0 0 0 0 0 0 0 0
 4.4497 -4.0530 0.0000 C 0 0 0 0 0 0 0 0 0 0 0 0
 5.0976 -3.6792 0.0000 C 0 0 0 0 0 0 0 0 0 0 0 0
 5.7413 -4.0530 0.0000 O 0 0 0 0 0 0 0 0 0 0 0 0
 6.3850 -3.6792 0.0000 C 0 0 0 0 0 0 0 0 0 0 0 0
 7.0287 -4.0530 0.0000 C 0 0 0 0 0 0 0 0 0 0 0 0
 7.6724 -3.6792 0.0000 C 0 0 0 0 0 0 0 0 0 0 0 0
 8.3161 -4.0530 0.0000 C 0 0 0 0 0 0 0 0 0 0 0 0
 8.9640 -3.6792 0.0000 N 0 0 3 0 0 0 0 0 0 0 0 0
 9.6077 -4.0530 0.0000 C 0 0 0 0 0 0 0 0 0 0 0 0
 10.2513 -3.6792 0.0000 C 0 0 0 0 0 0 0 0 0 0 0 0
 10.8951 -4.0530 0.0000 C 0 0 0 0 0 0 0 0 0 0 0 0
 11.5388 -3.6792 0.0000 C 0 0 0 0 0 0 0 0 0 0 0 0
 12.1866 -4.0530 0.0000 C 0 0 1 0 0 0 0 0 0 0 0 0
 13.4741 -4.0530 0.0000 O 0 0 0 0 0 0 0 0 0 0 0 0
 12.8303 -3.6792 0.0000 C 0 0 0 0 0 0 0 0 0 0 0 0
 1 21 2 0 0 0 0
 19 2 1 1 0 0 0
 13 3 2 0 0 0 0
 10 4 2 0 0 0 0
 6 5 1 0 0 0 0
 7 6 1 0 0 0 0
 8 7 1 0 0 0 0
 9 8 1 0 0 0 0
 10 9 1 0 0 0 0
 11 10 1 0 0 0 0
 12 11 1 0 0 0 0
 13 12 1 0 0 0 0
 13 14 1 0 0 0 0
 14 15 1 0 0 0 0
 15 16 1 0 0 0 0
 16 17 1 0 0 0 0
 17 18 1 0 0 0 0
 18 19 1 0 0 0 0
 19 21 1 0 0 0 0
 20 21 1 0 0 0 0
M STY 1 1 SRU
M SLB 1 1 1
M SCN 1 1 HT 
M SAL 1 3 8 6 7
M SBL 1 2 8 5
M SDI 1 4 3.4797 -4.2280 3.4797 -3.4822
M SDI 1 4 5.4131 -3.4822 5.4131 -4.2280
M SMT 1 A
M END
]]></MOLFILE>
 <FRAGMENT_CONNECTIVTY>2; 21</FRAGMENT_CONNECTIVTY>
 <POLYMER>
 <POLYMER_CLASS>HOMOPOLYMER</POLYMER_CLASS>
 <POLYMER_GEOMETRY>LINEAR</POLYMER_GEOMETRY>
 <COPOLYMER_SEQUENCE_TYPE />
 <STRUCTURAL_REPEAT_UNIT>
 <NUMBER_OF_STRUCTURAL_REPEAT_UNITS>1</NUMBER_OF_STRUCTURAL_REPEAT_UNITS>
 <STRUCTURAL_REPEAT_UNIT_AMOUNT_TYPE>MOLE PERCENT</STRUCTURAL_REPEAT_UNIT_AMOUNT_TYPE>
 <STRUCTURAL_REPEAT_UNIT_GROUP>
 <ORIENTATION_OF_POLYMERIZATION>HEAD-TAIL</ORIENTATION_OF_POLYMERIZATION>
 <STRUCTURAL_REPEAT_UNIT>A</STRUCTURAL_REPEAT_UNIT>
 <DEGREE_POLYMERIZATION>
 <AMOUNT>
 <AVERAGE />
 <LOW_LIMIT />
 <HIGH_LIMIT />
 <UNIT />
 <NON_NUMERIC_VALUE />
 </AMOUNT>
 </DEGREE_POLYMERIZATION>
 </STRUCTURAL_REPEAT_UNIT_GROUP>
 </STRUCTURAL_REPEAT_UNIT>
 </POLYMER>
 <AMOUNT>
 <AVERAGE />
 <LOW_LIMIT />
 <HIGH_LIMIT />
 <UNIT />
 <NON_NUMERIC_VALUE />
 </AMOUNT>
 </MOLECULAR_FRAGMENT_MOIETY>
 </STRUCTURAL_MODIFICATION_GROUP>
 </MODIFICATION_GROUP>
 <PROPERTY_GROUP>
 <PROPERTY_TYPE />
 <PROPERTY />
 <PROPERTY_DESCRIPTION>
 <SUBSTANCE_NAME />
 <SUBSTANCE_ID />
 <SUBSTANCE_ID />
 <AMOUNT_TYPE />
 <AMOUNT>
 <AVERAGE />
 <LOW_LIMIT />
 <HIGH_LIMIT />
 <UNIT />
 <NON_NUMERIC_VALUE />
 </AMOUNT>
 </PROPERTY_DESCRIPTION>
 </PROPERTY_GROUP>
 <MOLECULAR_WEIGHT>
 <MOLECULAR_WEIGHT_TYPE />
 <MOLECULAR_WEIGHT_METHOD />
 <AMOUNT>
 <AVERAGE>20000</AVERAGE>
 <LOW_LIMIT />
 <HIGH_LIMIT />
 <UNIT>Da</UNIT>
 <NON_NUMERIC_VALUE>APPROXIMATE</NON_NUMERIC_VALUE>
 </AMOUNT>
 </MOLECULAR_WEIGHT>
 <COMMENTS />
 <PUBLIC_DOMAIN />
</PROTEIN>

$$$$
> <SUBSTANCE_ID>
179975

> <UNII>
Y8KTZ6Y35U

> <DESC_PART1>
<PROTEIN>
 <SEQUENCE_TYPE>COMPLETE</SEQUENCE_TYPE>
 <NUMBER_OF_SUBUNITS>4</NUMBER_OF_SUBUNITS>
 <SUBUNIT_GROUP>
 <SUBUNIT>1</SUBUNIT>
 <LENGTH>327</LENGTH>
 <SEQUENCE>ADKLPNIVILATGGTIAGSAATGTQTTGYKAGALGVDTLINAVPEVKKLANVKGEQFSNMASENMTGDVVLKLSQRVNELLARDDVDGVVITHGTDTVEESAYFLHLTVKSDKPVVFVAAMRPATAISADGPMNLLEAVRVAGDKQSRGRGVMVVLNDRIGSARYITKTNASTLDTFKANEEGYLGVIIGNRIYYQNRIDKLHTTRSVFDVRGLTSLPKVDILYGYQDDPEYLYDAAIQHGVKGIVYAGMGAGSVSVRGIAGMRKAMEKGVVVIRSTRTGNGIVPPDEELPGLVSDSLNPAHARILLMLALTRTSDPKVIQEYFHTY</SEQUENCE>
 </SUBUNIT_GROUP>
 <SUBUNIT_GROUP>
 <SUBUNIT>2</SUBUNIT>
 <LENGTH>327</LENGTH>
 <SEQUENCE>ADKLPNIVILATGGTIAGSAATGTQTTGYKAGALGVDTLINAVPEVKKLANVKGEQFSNMASENMTGDVVLKLSQRVNELLARDDVDGVVITHGTDTVEESAYFLHLTVKSDKPVVFVAAMRPATAISADGPMNLLEAVRVAGDKQSRGRGVMVVLNDRIGSARYITKTNASTLDTFKANEEGYLGVIIGNRIYYQNRIDKLHTTRSVFDVRGLTSLPKVDILYGYQDDPEYLYDAAIQHGVKGIVYAGMGAGSVSVRGIAGMRKAMEKGVVVIRSTRTGNGIVPPDEELPGLVSDSLNPAHARILLMLALTRTSDPKVIQEYFHTY</SEQUENCE>
 </SUBUNIT_GROUP>
 <SUBUNIT_GROUP>
 <SUBUNIT>3</SUBUNIT>
 <LENGTH>327</LENGTH>
 <SEQUENCE>ADKLPNIVILATGGTIAGSAATGTQTTGYKAGALGVDTLINAVPEVKKLANVKGEQFSNMASENMTGDVVLKLSQRVNELLARDDVDGVVITHGTDTVEESAYFLHLTVKSDKPVVFVAAMRPATAISADGPMNLLEAVRVAGDKQSRGRGVMVVLNDRIGSARYITKTNASTLDTFKANEEGYLGVIIGNRIYYQNRIDKLHTTRSVFDVRGLTSLPKVDILYGYQDDPEYLYDAAIQHGVKGIVYAGMGAGSVSVRGIAGMRKAMEKGVVVIRSTRTGNGIVPPDEELPGLVSDSLNPAHARILLMLALTRTSDPKVIQEYFHTY</SEQUENCE>
 </SUBUNIT_GROUP>
 <SUBUNIT_GROUP>
 <SUBUNIT>4</SUBUNIT>
 <LENGTH>327</LENGTH>
 <SEQUENCE>ADKLPNIVILATGGTIAGSAATGTQTTGYKAGALGVDTLINAVPEVKKLANVKGEQFSNMASENMTGDVVLKLSQRVNELLARDDVDGVVITHGTDTVEESAYFLHLTVKSDKPVVFVAAMRPATAISADGPMNLLEAVRVAGDKQSRGRGVMVVLNDRIGSARYITKTNASTLDTFKANEEGYLGVIIGNRIYYQNRIDKLHTTRSVFDVRGLTSLPKVDILYGYQDDPEYLYDAAIQHGVKGIVYAGMGAGSVSVRGIAGMRKAMEKGVVVIRSTRTGNGIVPPDEELPGLVSDSLNPAHARILLMLALTRTSDPKVIQEYFHTY</SEQUENCE>
 </SUBUNIT_GROUP>
 <DISULFIDE_LINKAGE></DISULFIDE_LINKAGE>
 <GLYCOSYLATION>
 <GLYCOSYLATION_TYPE></GLYCOSYLATION_TYPE>
 <N_GLYCOSYLATION></N_GLYCOSYLATION>
 <O_GLYCOSYLATION></O_GLYCOSYLATION>
 <C_GLYCOSYLATION></C_GLYCOSYLATION>
 </GLYCOSYLATION>
 <MODIFICATION_GROUP>
 <PHYSICAL_MODIFICATION_GROUP>
 <ROLE />
 <NUMBER_OF_PARAMETERS>0</NUMBER_OF_PARAMETERS>
 <PARAMETER_GROUP>
 <PARAMETER />
 <AMOUNT>
 <AVERAGE />
 <LOW_LIMIT />
 <HIGH_LIMIT />
 <UNIT />
 <NON_NUMERIC_VALUE />
 </AMOUNT>
 </PARAMETER_GROUP>
 </PHYSICAL_MODIFICATION_GROUP>
 <AGENT_MODIFICATION_GROUP>
 <AGENT_MODIFICATION_TYPE />
 <ROLE />
 <MODIFICATION_AGENT />
 <MODIFICATION_AGENT_ID />
 <MODIFICATION_PROCESS />
 <AMOUNT_TYPE />
 <AMOUNT>
 <AVERAGE />
 <LOW_LIMIT />
 <HIGH_LIMIT />
 <UNIT />
 <NON_NUMERIC_VALUE />
 </AMOUNT>
 </AGENT_MODIFICATION_GROUP>
 <STRUCTURAL_MODIFICATION_GROUP>
 <RESIDUE_MODIFIED>Ala</RESIDUE_MODIFIED>
 <RESIDUE_SITE>1_1; 2_1; 3_1; 4_1</RESIDUE_SITE>
 <NUMBER_OF_FRAGMENTS_MOIETIES />
 <AMOUNT_TYPE>PROBABILITY</AMOUNT_TYPE>
 <MOLECULAR_FRAGMENT_MOIETY>
 <STRUCTURAL_MODIFICATION_TYPE />
 <ROLE />
 <FRAGMENT_NUMBER />
 <MOLECULAR_FRAGMENT_NAME />
 <MOLECULAR_FRAGMENT_ID />
 <MOLECULAR_FRAGMENT_INCHI />
 <MOLFILE><![CDATA[
 ACCLDraw07181417352D

 0 0 0 0 0 999 V3000
M V30 BEGIN CTAB
M V30 COUNTS 18 17 1 0 1
M V30 BEGIN ATOM
M V30 1 C 6.1444 -3.437 0 0 
M V30 2 O 7.1672 -4.0276 0 0 
M V30 3 C 8.1901 -3.437 0 0 
M V30 4 C 9.213 -4.0276 0 0 
M V30 5 N 10.2358 -3.437 0 0 CFG=3 
M V30 6 C 11.2587 -4.0276 0 0 
M V30 7 C 12.2816 -3.437 0 0 
M V30 8 C 13.3044 -4.0276 0 0 
M V30 9 O 11.2587 -5.2087 0 0 
M V30 10 C 14.3273 -3.437 0 0 
M V30 11 C 15.3501 -4.0276 0 0 
M V30 12 N 16.373 -4.0276 0 0 CFG=3 
M V30 13 O 15.3501 -5.2087 0 0 
M V30 14 C 17.3959 -3.4715 0 0 CFG=2 
M V30 15 C 18.4187 -4.062 0 0 
M V30 16 C 17.3959 -2.2904 0 0 
M V30 17 O 19.4416 -3.4715 0 0 
M V30 18 O 18.4187 -5.2432 0 0 
M V30 END ATOM
M V30 BEGIN BOND
M V30 1 1 1 2 
M V30 2 1 2 3 
M V30 3 1 3 4 
M V30 4 1 4 5 
M V30 5 1 5 6 
M V30 6 1 6 7 
M V30 7 1 7 8 
M V30 8 2 6 9 
M V30 9 1 8 10 
M V30 10 1 10 11 
M V30 1

> <DESC_PART2>
1 1 11 12 
M V30 12 2 11 13 
M V30 13 1 12 14 
M V30 14 1 14 15 
M V30 15 1 14 16 CFG=1 
M V30 16 2 15 17 
M V30 17 1 15 18 
M V30 END BOND
M V30 BEGIN SGROUP
M V30 1 GEN 1 ATOMS=(3 3 2 4) XBONDS=(2 1 4) BRKXYZ=(9 6.65 -4.32 0 6.65 -
M V30 -3.15 0 0 0 0) BRKXYZ=(9 9.72 -3.15 0 9.72 -4.32 0 0 0 0) 
M V30 END SGROUP
M V30 BEGIN COLLECTION
M V30 XMDL/SELECTION ATOMS=(18 1 2 3 4 5 6 7 8 9 10 11 12 13 14 15 16 17 18) -
M V30 BONDS=(17 1 2 3 4 5 6 7 8 9 10 11 12 13 14 15 16 17) 
M V30 MDLV30/STEABS ATOMS=(1 14)
M V30 END COLLECTION
M V30 END CTAB
M END
]]></MOLFILE>
 <FRAGMENT_CONNECTIVTY>0; 15</FRAGMENT_CONNECTIVTY>
 <AMOUNT>
 <AVERAGE>10/18</AVERAGE>
 <LOW_LIMIT />
 <HIGH_LIMIT />
 <UNIT />
 <NON_NUMERIC_VALUE />
 </AMOUNT>
 <POLYMER>
 <POLYMER_CLASS>HOMOPOLYMER</POLYMER_CLASS>
 <POLYMER_GEOMETRY>LINEAR</POLYMER_GEOMETRY>
 <COPOLYMER_SEQUENCE_TYPE></COPOLYMER_SEQUENCE_TYPE>
 <STRUCTURAL_REPEAT_UNIT>
 <NUMBER_OF_STRUCTURAL_REPEAT_UNITS>1</NUMBER_OF_STRUCTURAL_REPEAT_UNITS>
 <STRUCTURAL_REPEAT_UNIT_AMOUNT_TYPE>MOLE PERCENT</STRUCTURAL_REPEAT_UNIT_AMOUNT_TYPE>
 <STRUCTURAL_REPEAT_UNIT_GROUP>
 <ORIENTATION_OF_POLYMERIZATION>HEAD-TAIL</ORIENTATION_OF_POLYMERIZATION>
 <STRUCTURAL_REPEAT_UNIT>A</STRUCTURAL_REPEAT_UNIT>
 <DEGREE_POLYMERIZATION>
 <AMOUNT>
 <AVERAGE>120</AVERAGE>
 <LOW_LIMIT />
 <HIGH_LIMIT />
 <UNIT />
 <NON_NUMERIC_VALUE />
 </AMOUNT>
 </DEGREE_POLYMERIZATION>
 </STRUCTURAL_REPEAT_UNIT_GROUP>
 </STRUCTURAL_REPEAT_UNIT>
 </POLYMER>
 </MOLECULAR_FRAGMENT_MOIETY>
 </STRUCTURAL_MODIFICATION_GROUP>
 <STRUCTURAL_MODIFICATION_GROUP>
 <RESIDUE_MODIFIED>Lys</RESIDUE_MODIFIED>
 <RESIDUE_SITE>1_3; 1_30; 1_47; 1_48; 1_53; 1_72; 1_110; 1_113; 1_145; 1_168; 1_178; 1_201; 1_219; 1_243; 1_265; 1_269; 1_318; 2_3; 2_30; 2_47; 2_48; 2_53; 2_72; 2_110; 2_113; 2_145; 2_168; 2_178; 2_201; 2_219; 2_243; 2_265; 2_269; 2_318; 3_3; 3_30; 3_47; 3_48; 3_53; 3_72; 3_110; 3_113; 3_145; 3_168; 3_178; 3_201; 3_219; 3_243; 3_265; 3_269; 3_318; 4_3; 4_30; 4_47; 4_48; 4_53; 4_72; 4_110; 4_113; 4_145; 4_168; 4_178; 4_201; 4_219; 4_243; 4_265; 4_269; 4_318;</RESIDUE_SITE>
 <NUMBER_OF_FRAGMENTS_MOIETIES />
 <AMOUNT_TYPE />
 <MOLECULAR_FRAGMENT_MOIETY>
 <STRUCTURAL_MODIFICATION_TYPE />
 <ROLE />
 <FRAGMENT_NUMBER />
 <MOLECULAR_FRAGMENT_NAME />
 <MOLECULAR_FRAGMENT_ID />
 <MOLECULAR_FRAGMENT_INCHI />
 <MOLFILE><![CDATA[
 ACCLDraw07181417542D

 0 0 0 0 0 999 V3000
M V30 BEGIN CTAB
M V30 COUNTS 22 21 2 0 1
M V30 BEGIN ATOM
M V30 1 C 6.1444 -3.437 0 0 
M V30 2 O 7.1672 -4.0276 0 0 
M V30 3 C 8.1901 -3.437 0 0 
M V30 4 C 9.213 -4.0276 0 0 
M V30 5 N 10.2358 -3.437 0 0 CFG=3 
M V30 6 C 11.2587 -4.0276 0 0 
M V30 7 C 12.2816 -3.437 0 0 
M V30 8 C 13.3044 -4.0276 0 0 
M V30 9 O 11.2587 -5.2087 0 0 
M V30 10 C 14.3273 -3.437 0 0 
M V30 11 C 15.3501 -4.0276 0 0 
M V30 12 N 16.248 -3.5276 0 0 CFG=3 
M V30 13 O 15.3501 -5.2087 0 0 
M V30 14 C 17.2709 -4.1182 0 0 
M V30 15 C 18.2938 -3.5276 0 0 
M V30 16 C 19.3166 -4.1182 0 0 
M V30 17 C 20.3395 -3.5276 0 0 
M V30 18 C 21.3624 -4.1182 0 0 CFG=1 
M V30 19 C 22.3852 -3.5276 0 0 
M V30 20 N 21.3624 -5.2993 0 0 
M V30 21 O 22.3852 -2.3465 0 0 
M V30 22 O 23.4081 -4.1182 0 0 
M V30 END ATOM
M V30 BEGIN BOND
M V30 1 1 1 2 
M V30 2 1 2 3 
M V30 3 1 3 4 
M V30 4 1 4 5 
M V30 5 1 5 6 
M V30 6 1 6 7 
M V30 7 1 7 8 
M V30 8 2 6 9 
M V30 9 1 8 10 
M V30 10 1 10 11 
M V30 11 1 11 12 
M V30 12 2 11 13 
M V30 13 1 12 14 
M V30 14 1 14 15 
M V30 15 1 15 16 
M V30 16 1 16 17 
M V30 17 1 18 17 CFG=1 
M V30 18 1 18 19 
M V30 19 1 18 20 
M V30 20 2 19 21 
M V30 21 1 19 22 
M V30 END BOND
M V30 BEGIN SGROUP
M V30 1 GEN 1 ATOMS=(3 3 2 4) XBONDS=(2 1 4) BRKXYZ=(9 6.65 -4.32 0 6.65 -
M V30 -3.15 0 0 0 0) BRKXYZ=(9 9.72 -3.15 0 9.72 -4.32 0 0 0 0) 
M V30 2 DAT 2 PARENT=1 FIELDNAME=fdareg_sgroup -
M V30 FIELDDISP=" 0.0000 0.0000 DR ALL 1 6" -
M V30 FIELDDATA=A 
M V30 END SGROUP
M V30 BEGIN COLLECTION
M V30 XMDL/SELECTION ATO

> <DESC_PART3>
MS=(13 1 2 3 4 5 6 7 8 9 10 11 12 13) BONDS=(12 1 2 3-
M V30 4 5 6 7 8 9 10 11 12) 
M V30 MDLV30/STEABS ATOMS=(1 18)
M V30 END COLLECTION
M V30 END CTAB
M END
]]></MOLFILE>
 <FRAGMENT_CONNECTIVTY>20; 19</FRAGMENT_CONNECTIVTY>
 <AMOUNT>
 <AVERAGE>10/18</AVERAGE>
 <LOW_LIMIT />
 <HIGH_LIMIT />
 <UNIT />
 <NON_NUMERIC_VALUE />
 </AMOUNT>
 <POLYMER>
 <POLYMER_CLASS>HOMOPOLYMER</POLYMER_CLASS>
 <POLYMER_GEOMETRY>LINEAR</POLYMER_GEOMETRY>
 <COPOLYMER_SEQUENCE_TYPE></COPOLYMER_SEQUENCE_TYPE>
 <STRUCTURAL_REPEAT_UNIT>
 <NUMBER_OF_STRUCTURAL_REPEAT_UNITS>1</NUMBER_OF_STRUCTURAL_REPEAT_UNITS>
 <STRUCTURAL_REPEAT_UNIT_AMOUNT_TYPE>MOLE PERCENT</STRUCTURAL_REPEAT_UNIT_AMOUNT_TYPE>
 <STRUCTURAL_REPEAT_UNIT_GROUP>
 <ORIENTATION_OF_POLYMERIZATION>HEAD-TAIL</ORIENTATION_OF_POLYMERIZATION>
 <STRUCTURAL_REPEAT_UNIT>A</STRUCTURAL_REPEAT_UNIT>
 <DEGREE_POLYMERIZATION>
 <AMOUNT>
 <AVERAGE>120</AVERAGE>
 <LOW_LIMIT />
 <HIGH_LIMIT />
 <UNIT />
 <NON_NUMERIC_VALUE />
 </AMOUNT>
 </DEGREE_POLYMERIZATION>
 </STRUCTURAL_REPEAT_UNIT_GROUP>
 </STRUCTURAL_REPEAT_UNIT>
 </POLYMER>
 </MOLECULAR_FRAGMENT_MOIETY>
 </STRUCTURAL_MODIFICATION_GROUP>
 </MODIFICATION_GROUP>
 <PROPERTY_GROUP>
 <PROPERTY_TYPE />
 <PROPERTY />
 <PROPERTY_DESCRIPTION>
 <SUBSTANCE_NAME />
 <SUBSTANCE_ID />
 <SUBSTANCE_ID />
 <AMOUNT_TYPE />
 <AMOUNT>
 <AVERAGE />
 <LOW_LIMIT />
 <HIGH_LIMIT />
 <UNIT />
 <NON_NUMERIC_VALUE />
 </AMOUNT>
 </PROPERTY_DESCRIPTION>
 </PROPERTY_GROUP>
 <MOLECULAR_WEIGHT>
 <MOLECULAR_WEIGHT_TYPE />
 <MOLECULAR_WEIGHT_METHOD />
 <AMOUNT>
 <AVERAGE />
 <LOW_LIMIT />
 <HIGH_LIMIT />
 <UNIT />
 <NON_NUMERIC_VALUE />
 </AMOUNT>
 </MOLECULAR_WEIGHT>
 <COMMENTS />
 <PUBLIC_DOMAIN />
</PROTEIN>

$$$$
> <SUBSTANCE_ID>
150486

> <UNII>
0B7PYQ9YRT

> <DESC_PART1>
<PROTEIN>
 <SEQUENCE_TYPE>COMPLETE</SEQUENCE_TYPE>
 <NUMBER_OF_SUBUNITS>1</NUMBER_OF_SUBUNITS>
 <SUBUNIT_GROUP>
 <SUBUNIT>1</SUBUNIT>
 <LENGTH>408</LENGTH>
 <SEQUENCE>SVFDSKFNGIHVYSEIGELETVLVHEPGREIDYITPARLDELLFSAILESHDARKEHQSFVKIMKDRGINVVELTDLVAETYDLASKAAKEEFIETFLEETVPVLTEANKEAVRAFLLSKPTHEMVEFMMSGITKYELGVESENELIVDPMPNLYFTRDPFASVGNGVTIHFMRYIVRRRETLFARFVFRNHPKLVKTPWYYDPAMKMSIEGGDVFIYNNETLVVGVSERTDLDTITLLAKNIKANKEVEFKRIVAINVPKWTNLMHLDTWLTMLDKNKFLYSPIANDVFKFWDYDLVNGGAEPQPQLNGLPLDKLLASIINKEPVLIPIGGAGATEMEIARETNFDGTNYLAIKPGLVIGYDRNEKTNAALKAAGITVLPFHGNQLSLGMGNARCMSMPLSRKDVKW
</SEQUENCE>
 </SUBUNIT_GROUP>
 <DISULFIDE_LINKAGE></DISULFIDE_LINKAGE>
 <OTHER_LINKAGE>
 <SITE></SITE>
 <LINKAGE_TYPE></LINKAGE_TYPE>
 </OTHER_LINKAGE>
 <GLYCOSYLATION>
 <GLYCOSYLATION_TYPE />
 <N_GLYCOSYLATION></N_GLYCOSYLATION>
 <O_GLYCOSYLATION></O_GLYCOSYLATION>
 <C_GLYCOSYLATION />
 </GLYCOSYLATION>
 <MODIFICATION_GROUP>
 <STRUCTURAL_MODIFICATION_GROUP>
 <RESIDUE_MODIFIED>Ser</RESIDUE_MODIFIED>
 <RESIDUE_SITE>1_1; </RESIDUE_SITE>
 <NUMBER_OF_FRAGMENTS_MOIETIES />
 <AMOUNT_TYPE />
 <MOLECULAR_FRAGMENT_MOIETY>
 <STRUCTURAL_MODIFICATION_TYPE></STRUCTURAL_MODIFICATION_TYPE>
 <ROLE></ROLE>
 <FRAGMENT_NUMBER></FRAGMENT_NUMBER>
 <MOLECULAR_FRAGMENT_NAME></MOLECULAR_FRAGMENT_NAME>
 <MOLECULAR_FRAGMENT_ID />
 <MOLECULAR_FRAGMENT_INCHI></MOLECULAR_FRAGMENT_INCHI>
 <MOLFILE><![CDATA[
 ACCLDraw04101416462D

 19 18 0 0 1 0 0 0 0 0999 V2000
 17.2227 -4.2965 0.0000 H 0 0 0 0 0 0 0 0 0 0 0 0
 17.9739 -7.6363 0.0000 O 0 0 0 0 0 0 0 0 0 0 0 0
 15.2357 -7.6600 0.0000 N 0 0 3 0 0 0 0 0 0 0 0 0
 16.1689 -6.9777 0.0000 C 0 0 2 0 0 0 0 0 0 0 0 0
 17.1518 -8.8302 0.0000 O 0 0 0 0 0 0 0 0 0 0 0 0
 17.1518 -7.6420 0.0000 C 0 0 0 0 0 0 0 0 0 0 0 0
 16.1689 -5.7865 0.0000 C 0 0 0 0 0 0 0 0 0 0 0 0
 17.1944 -5.1952 0.0000 O 0 0 0 0 0 0 0 0 0 0 0 0
 14.2128 -8.2506 0.0000 C 0 0 0 0 0 0 0 0 0 0 0 0
 13.1900 -7.6600 0.0000 C 0 0 0 0 0 0 0 0 0 0 0 0
 12.1671 -8.2506 0.0000 C 0 0 0 0 0 0 0 0 0 0 0 0
 11.1442 -7.6600 0.0000 C 0 0 0 0 0 0 0 0 0 0 0 0
 10.1214 -8.2506 0.0000 O 0 0 0 0 0 0 0 0 0 0 0 0
 14.2128 -9.4317 0.0000 O 0 0 0 0 0 0 0 0 0 0 0 0
 9.0985 -7.6600 0.0000 C 0 0 0 0 0 0 0 0 0 0 0 0
 8.0756 -8.2506 0.0000 C 0 0 0 0 0 0 0 0 0 0 0 0
 7.0528 -7.6600 0.0000 O 0 0 0 0 0 0 0 0 0 0 0 0
 6.0299 -8.2506 0.0000 C 0 0 0 0 0 0 0 0 0 0 0 0
 11.1442 -6.4789 0.0000 O 0 0 0 0 0 0 0 0 0 0 0 0
 8 1 1 0 0 0 0
 6 2 1 0 0 0 0
 6 5 2 0 0 0 0
 4 6 1 0 0 0 0
 7 8 1 0 0 0 0
 4 7 1 1 0 0 0
 3 4 1 0 0 0 0
 3 9 1 0 0 0 0
 9 10 1 0 0 0 0
 10 11 1 0 0 0 0
 11 12 1 0 0 0 0
 12 13 1 0 0 0 0
 9 14 2 0 0 0 0
 13 15 1 0 0 0 0
 15 16 1 0 0 0 0
 16 17 1 0 0 0 0
 17 18 1 0 0 0 0
 12 19 2 0 0 0 0
G 1 8
H
G 2 6
OH
M STY 7 1 SUP 2 SUP 3 SUP 4 GEN 5 DAT 6 DAT 7 DAT
M SLB 7 1 1 2 2 3 3 4 4 5 5 6 6 7 7
M SPL 1 5 4
M SAL 1 1 1
M SBL 1 1 1
M SMT 1 H
M SCL 1 LGRP
M SAL 2 1 2
M SBL 2 1 2
M SMT 2 OH
M SCL 2 LGRP
M SAL 3 6 3 4 5 6 7 8
M SBL 3 3 2 1 8
M SMT 3 S
M SAP 3 3 8 1 Cx 3 9 Al 6 2 Br
M SCL 3 MODAA
M SAL 4 3 15 13 16
M SBL 4 2 16 12
M SDI 4 4 7.5642 -8.5459 7.5642 -7.3648
M SDI 4 4 10.6328 -7.3648 10.6328 -8.5459
M SDT 5 fdareg_sgroup

> <DESC_PART2>
M SDD 5 0.0000 0.0000 DR ALL 1 6
M SED 5 A
M SAL 6 6 3 4 5 6 7 8
M SDT 6 SMMX:sequence position data 
M SDD 6 1.2563 -5.6510 DA ALL 1 
M SAL 7 6 3 4 5 6 7 8
M SDT 7 SMMX:modification 
M SDD 7 0.0000 0.0000 DR ALL 1 
M SDS EXP 3 1 2 3
M END
]]></MOLFILE>
 <FRAGMENT_CONNECTIVTY></FRAGMENT_CONNECTIVTY>
 <POLYMER>
 <POLYMER_CLASS>HOMOPOLYMER</POLYMER_CLASS>
 <POLYMER_GEOMETRY>LINEAR</POLYMER_GEOMETRY>
 <MONOMER_DESCRIPTION>
 <NUMBER_OF_MONOMERS>1</NUMBER_OF_MONOMERS>
 <MONOMER_AMOUNT_TYPE>MOLE PERCENT</MONOMER_AMOUNT_TYPE>
 <MONOMER_GROUP>
 <MONOMER_ID>JJH7GNN18P</MONOMER_ID>
 <MONOMER_NAME>ETHYLENE OXIDE</MONOMER_NAME>
 <AMOUNT>
 <AVERAGE>450</AVERAGE>
 <LOW_LIMIT />
 <UNIT>MOLE PERCENT</UNIT>
 <NON_NUMERIC_VALUE />
 </AMOUNT>
 </MONOMER_GROUP>
 </MONOMER_DESCRIPTION>
 <STRUCTURAL_REPEAT_UNIT>
 <NUMBER_OF_STRUCTURAL_REPEAT_UNITS></NUMBER_OF_STRUCTURAL_REPEAT_UNITS>
 <STRUCTURAL_REPEAT_UNIT_AMOUNT_TYPE>MOLE PERCENT</STRUCTURAL_REPEAT_UNIT_AMOUNT_TYPE>
 <STRUCTURAL_REPEAT_UNIT_GROUP>
 <ORIENTATION_OF_POLYMERIZATION>HEAD-TAIL</ORIENTATION_OF_POLYMERIZATION>
 <STRUCTURAL_REPEAT_UNIT>A</STRUCTURAL_REPEAT_UNIT>
 <AMOUNT>
 <AVERAGE>450</AVERAGE>
 <LOW_LIMIT />
 <HIGH_LIMIT />
 <UNIT />
 <NON_NUMERIC_VALUE />
 </AMOUNT>
 </STRUCTURAL_REPEAT_UNIT_GROUP>
 </STRUCTURAL_REPEAT_UNIT>
 <COMMENTS />
 </POLYMER>
 <AMOUNT>
 <AVERAGE>5/28</AVERAGE>
 <LOW_LIMIT />
 <HIGH_LIMIT />
 <UNIT />
 <NON_NUMERIC_VALUE />
 </AMOUNT>
 </MOLECULAR_FRAGMENT_MOIETY>
 </STRUCTURAL_MODIFICATION_GROUP>
 <STRUCTURAL_MODIFICATION_GROUP>
 <RESIDUE_MODIFIED>Lys</RESIDUE_MODIFIED>
 <RESIDUE_SITE>1_6; 1_55; 1_62; 1_65; 1_87; 1_90; 1_110; 1_120; 1_135; 1_194; 1_197; 1_207; 1_241; 1_244; 1_247; 1_252; 1_261; 1_277; 1_279; 1_291; 1_315; 1_323; 1_355; 1_367; 1_373; 1_404; 1_407</RESIDUE_SITE>
 <NUMBER_OF_FRAGMENTS_MOIETIES />
 <AMOUNT_TYPE />
 <MOLECULAR_FRAGMENT_MOIETY>
 <STRUCTURAL_MODIFICATION_TYPE></STRUCTURAL_MODIFICATION_TYPE>
 <ROLE></ROLE>
 <FRAGMENT_NUMBER></FRAGMENT_NUMBER>
 <MOLECULAR_FRAGMENT_NAME></MOLECULAR_FRAGMENT_NAME>
 <MOLECULAR_FRAGMENT_ID />
 <MOLECULAR_FRAGMENT_INCHI></MOLECULAR_FRAGMENT_INCHI>
 <MOLFILE><![CDATA[
 ACCLDraw04101417132D

 22 21 0 0 1 0 0 0 0 0999 V2000
 14.1581 -8.4582 0.0000 H 0 0 0 0 0 0 0 0 0 0 0 0
 16.2039 -4.9149 0.0000 O 0 0 0 0 0 0 0 0 0 0 0 0
 12.1124 -2.5527 0.0000 N 0 0 3 0 0 0 0 0 0 0 0 0
 13.1353 -3.1432 0.0000 C 0 0 0 0 0 0 0 0 0 0 0 0
 13.1353 -4.3243 0.0000 C 0 0 0 0 0 0 0 0 0 0 0 0
 14.1581 -4.9149 0.0000 C 0 0 0 0 0 0 0 0 0 0 0 0
 14.1581 -6.0960 0.0000 C 0 0 0 0 0 0 0 0 0 0 0 0
 17.2267 -6.6865 0.0000 O 0 0 0 0 0 0 0 0 0 0 0 0
 16.2039 -6.0960 0.0000 C 0 0 0 0 0 0 0 0 0 0 0 0
 15.1810 -6.6865 0.0000 C 0 0 1 0 0 0 0 0 0 0 0 0
 15.1810 -7.8676 0.0000 N 0 0 3 0 0 0 0 0 0 0 0 0
 8.0210 -1.3715 0.0000 O 0 0 0 0 0 0 0 0 0 0 0 0
 2.9067 -3.1432 0.0000 C 0 0 0 0 0 0 0 0 0 0 0 0
 3.9295 -2.5527 0.0000 O 0 0 0 0 0

> <DESC_PART3>
0 0 0 0 0 0 0
 4.9524 -3.1432 0.0000 C 0 0 0 0 0 0 0 0 0 0 0 0
 5.9752 -2.5527 0.0000 C 0 0 0 0 0 0 0 0 0 0 0 0
 11.0895 -4.3243 0.0000 O 0 0 0 0 0 0 0 0 0 0 0 0
 6.9981 -3.1432 0.0000 O 0 0 0 0 0 0 0 0 0 0 0 0
 8.0210 -2.5527 0.0000 C 0 0 0 0 0 0 0 0 0 0 0 0
 9.0438 -3.1432 0.0000 C 0 0 0 0 0 0 0 0 0 0 0 0
 10.0667 -2.5527 0.0000 C 0 0 0 0 0 0 0 0 0 0 0 0
 11.0895 -3.1432 0.0000 C 0 0 0 0 0 0 0 0 0 0 0 0
 11 1 1 0 0 0 0
 9 2 1 0 0 0 0
 4 3 1 0 0 0 0
 5 4 1 0 0 0 0
 6 5 1 0 0 0 0
 7 6 1 0 0 0 0
 10 7 1 1 0 0 0
 9 8 2 0 0 0 0
 10 9 1 0 0 0 0
 11 10 1 0 0 0 0
 19 12 2 0 0 0 0
 14 13 1 0 0 0 0
 15 14 1 0 0 0 0
 16 15 1 0 0 0 0
 18 16 1 0 0 0 0
 22 17 2 0 0 0 0
 19 18 1 0 0 0 0
 20 19 1 0 0 0 0
 21 20 1 0 0 0 0
 22 21 1 0 0 0 0
 22 3 1 0 0 0 0
G 1 11
H
G 2 9
OH
M STY 6 1 SUP 2 SUP 3 SUP 4 GEN 5 DAT 6 DAT
M SLB 6 1 1 2 2 3 3 4 4 5 5 6 6
M SPL 1 5 4
M SAL 1 1 1
M SBL 1 1 1
M SMT 1 H
M SCL 1 LGRP
M SAL 2 1 2
M SBL 2 1 2
M SMT 2 OH
M SCL 2 LGRP
M SAL 3 9 3 4 5 6 7 8 9 10 11
M SBL 3 3 21 2 1
M SMT 3 K
M SAP 3 3 3 22 Cx 11 1 Al 9 2 Br
M SCL 3 AA
M SAL 4 3 15 16 18
M SBL 4 2 13 17
M SDI 4 4 4.4409 -3.4385 4.4409 -2.2574
M SDI 4 4 7.5096 -2.2574 7.5096 -3.4385
M SDT 5 fdareg_sgroup 
M SDD 5 0.0000 0.0000 DR ALL 1 6
M SED 5 B
M SAL 6 9 3 4 5 6 7 8 9 10 11
M SDT 6 SMMX:sequence position data 
M SDD 6 15.6925 -6.9818 DA ALL 1 
M SDS EXP 3 1 2 3
M END
]]></MOLFILE>
 <FRAGMENT_CONNECTIVTY></FRAGMENT_CONNECTIVTY>
 <POLYMER>
 <POLYMER_CLASS>HOMOPOLYMER</POLYMER_CLASS>
 <POLYMER_GEOMETRY>LINEAR</POLYMER_GEOMETRY>
 <MONOMER_DESCRIPTION>
 <NUMBER_OF_MONOMERS>1</NUMBER_OF_MONOMERS>
 <MONOMER_AMOUNT_TYPE>MOLE PERCENT</MONOMER_AMOUNT_TYPE>
 <MONOMER_GROUP>
 <MONOMER_ID>JJH7GNN18P</MONOMER_ID>
 <MONOMER_NAME>ETHYLENE OXIDE</MONOMER_NAME>
 <AMOUNT>
 <AVERAGE>450</AVERAGE>
 <LOW_LIMIT />
 <UNIT>MOLE PERCENT</UNIT>
 <NON_NUMERIC_VALUE />
 </AMOUNT>
 </MONOMER_GROUP>
 </MONOMER_DESCRIPTION>
 <STRUCTURAL_REPEAT_UNIT>
 <NUMBER_OF_STRUCTURAL_REPEAT_UNITS></NUMBER_OF_STRUCTURAL_REPEAT_UNITS>
 <STRUCTURAL_REPEAT_UNIT_AMOUNT_TYPE>MOLE PERCENT</STRUCTURAL_REPEAT_UNIT_AMOUNT_TYPE>
 <STRUCTURAL_REPEAT_UNIT_GROUP>
 <ORIENTATION_OF_POLYMERIZATION>HEAD-TAIL</ORIENTATION_OF_POLYMERIZATION>
 <STRUCTURAL_REPEAT_UNIT>B</STRUCTURAL_REPEAT_UNIT>
 <AMOUNT>
 <AVERAGE>450</AVERAGE>
 <LOW_LIMIT />
 <HIGH_LIMIT />
 <UNIT />
 <NON_NUMERIC_VALUE />
 </AMOUNT>
 </STRUCTURAL_REPEAT_UNIT_GROUP>
 </STRUCTURAL_REPEAT_UNIT>
 <COMMENTS />
 </POLYMER>
 <AMOUNT>
 <AVERAGE>5/28</AVERAGE>
 <LOW_LIMIT />
 <HIGH_LIMIT />
 <UNIT />
 <NON_NUMERIC_VALUE />
 </AMOUNT>
 </MOLECULAR_FRAGMENT_MOIETY>
 </STRUCTURAL_MODIFICATION_GROUP>
 </MODIFICATION_GROUP>
 <COMMENTS />
 <PUBLIC_DOMAIN />
</PROTEIN>

$$$$
> <SUBSTANCE_ID>
148698

> <UNII>
DD50D2QKH1

> <DESC_PART1>
<SUBSTANCE>
<SUBSTANCE_ID/>
<SINGLE_SUBSTANCE>
<ELEMENT_TYPE>
<NUCLEIC_ACID>
<SEQUENCE_TYPE>COMPLETE</SEQUENCE_TYPE>
<NUMBER_OF_SUBUNITS>1</NUMBER_OF_SUBUNITS>
<SUBUNIT_GROUP>
<SUBUNIT>1</SUBUNIT>
<SUBUNIT_TYPE>LINEAR</SUBUNIT_TYPE>
<LENGTH>30</LENGTH>
<BASE_SEQUENCE>CAGGCUACGCGTAGAGCAUCATGATCCUGT</BASE_SEQUENCE>
<FIVE_PRIME_FRAGMENT_NAME/>
<FIVE_PRIME_FRAGMENT_ID/>
<THREE_PRIME_FRAGMENT_NAME/>
<THREE_PRIME_FRAGMENT_ID/>
<SUGAR_LINKER>
<RESIDUES>1_2-1_5; 1_7; 1_11-1_13; 1_15; 1_17; 1_18; 1_23-1_25;</RESIDUES>
<MOLFILE> ACCLDraw02211415262D 16 15 0 0 1 0 0 0 0 0999 V2000 7.8129 -5.9972 0.0000 C 0 0 1 0 0 0 0 0 0 0 0 0 8.6480 -5.1621 0.0000 O 0 0 0 0 0 0 0 0 0 0 0 0 8.3996 -7.0135 0.0000 C 0 0 2 0 0 0 0 0 0 0 0 0 9.6911 -5.7643 0.0000 C 0 0 2 0 0 0 0 0 0 0 0 0 9.5300 -6.8608 0.0000 C 0 0 0 0 0 0 0 0 0 0 0 0 7.5072 -4.8564 0.0000 C 0 0 0 0 0 0 0 0 0 0 0 0 6.3664 -4.5507 0.0000 O 0 0 0 0 0 0 0 0 0 0 0 0 6.0607 -3.4098 0.0000 P 0 0 3 0 0 0 0 0 0 0 0 0 4.9198 -3.1041 0.0000 O 0 0 0 0 0 0 0 0 0 0 0 0 6.8958 -2.5746 0.0000 O 0 5 0 0 0 0 0 0 0 0 0 0 5.7550 -2.2689 0.0000 O 0 0 0 0 0 0 0 0 0 0 0 0 7.8091 -8.0363 0.0000 O 0 0 0 0 0 0 0 0 0 0 0 0 8.3996 -9.0592 0.0000 * 0 0 0 0 0 0 0 0 0 0 0 0 10.7140 -5.1737 0.0000 O 0 0 0 0 0 0 0 0 0 0 0 0 4.6141 -1.9633 0.0000 * 0 0 0 0 0 0 0 0 0 0 0 0 9.3125 -3.0000 0.0000 Na 0 3 0 0 0 0 0 0 0 0 0 0 4 5 1 0 0 0 0 3 5 1 0 0 0 0 2 4 1 0 0 0 0 1 3 1 0 0 0 0 1 2 1 0 0 0 0 1 6 1 1 0 0 0 6 7 1 0 0 0 0 7 8 1 0 0 0 0 8 9 2 0 0 0 0 8 10 1 0 0 0 0 8 11 1 0 0 0 0 3 12 1 6 0 0 0 12 13 1 0 0 0 0 4 14 1 1 0 0 0 11 15 1 0 0 0 0 M CHG 2 10 -1 16 1 M END</MOLFILE>
</SUGAR_LINKER>
<SUGAR_LINKER>
<RESIDUES>1_9; 1_14; 1_16; 1_21; 1_29;</RESIDUES>
<MOLFILE> ACCLDraw02211415502D 18 17 0 0 1 0 0 0 0 0999 V2000 7.8129 -5.9972 0.0000 C 0 0 1 0 0 0 0 0 0 0 0 0 8.6480 -5.1621 0.0000 O 0 0 0 0 0 0 0 0 0 0 0 0 8.3996 -7.0135 0.0000 C 0 0 2 0 0 0 0 0 0 0 0 0 9.6911 -5.7643 0.0000 C 0 0 2 0 0 0 0 0 0 0 0 0 9.5300 -6.8608 0.0000 C 0 0 2 0 0 0 0 0 0 0 0 0 7.5072 -4.8564 0.0000 C 0 0 0 0 0 0 0 0 0 0 0 0 6.3664 -4.5507 0.0000 O 0 0 0 0 0 0 0 0 0 0 0 0 6.0607 -3.4098 0.0000 P 0 0 3 0 0 0 0 0 0 0 0 0 4.9198 -3.1041 0.0000 O 0 0 0 0 0 0 0 0 0 0 0 0 6.8958 -2.5746 0.0000 O 0 5 0 0 0 0 0 0 0 0 0 0 5.7550 -2.2689 0.0000 O 0 0 0 0 0 0 0 0 0 0 0 0 7.8091 -8.0363 0.0000 O 0 0 0 0 0 0 0 0 0 0 0 0 8.3996 -9.0592 0.0000 * 0 0 0 0 0 0 0 0 0 0 0 0 10.7140 -5.1737 0.0000 O 0 0 0 0 0 0 0 0 0 0 0 0 4.6141 -1.9633 0.0000 * 0 0 0 0 0 0 0 0 0 0 0 0 9.3125 -3.0000 0.0000 Na 0 3 0 0 0 0 0 0 0 0 0 0 10.3652 -7.6959 0.0000 O 0 0 0 0 0 0 0 0 0 0 0 0 10.0595 -8.8368 0.0000 C 0 0 0 0 0 0 0 0 0 0 0 0 4 5 1 0 0 0 0 3 5 1 0 0 0 0 2 4 1 0 0 0 0 1 3 1 0 0 0 0 1 2 1 0 0 0 0 1 6 1 1 0 0 0 6 7 1 0 0 0 0 7 8 1 0 0 0 0 8 9 2 0 0 0 0 8 10 1 0 0 0 0 8 11 1 0 0 0 0 3 12 1 6 0 0 0 12 13 1 0 0 0 0 4 14 1 1 0 0 0 11 15 1 0 0 0 0 5 17 1 6 0 0 0 17 18 1 0 0 0 0 M CHG 2 10 -1 16 1 M END</MOLFILE>
</SUGAR_LINKER>
<SUGAR_LINKER>
<RESIDUES>1_6; 1_8; 1_19; 1_20; 1_26-1_28;</RESIDUES>
<MOLFILE> ACCLDraw02211415472D 17 16 0 0 1 0 0 0 0 0999 V2000 7.8129 -5.9972 0.0000 C 0 0 1 0 0 0 0 0 0 0 0 0 8.6480 -5.1621 0.0000 O 0 0 0 0 0 0 0 0 0 0 0 0 8.3996 -7.0135 0.0000 C 0 0 2 0 0 0 0 0 0 0 0 0 9.6911 -5.7643 0.0000 C 0 0 2 0 0 0 0 0 0 0 0 0 9.5300 -6.8608 0.0000 C 0 0 2 0 0 0 0 0 0 0 0 0 7.5072 -4.8564 0.0000 C 0 0 0 0 0 0 0 0 0 0 0 0 6.3664 -4.5507 0.0000 O 0 0 0 0 0 0 0 0 0 0 0 0 6.0607 -3.4098 0.0000 P 0 0 3 0 0 0 0 0 0 0 0 0 4.9198 -3.1041 0.0000 O 0 0 0 0 0 0 0 0 0 0 0 0 6.8958 -2.5746 0.0000 O 0 5 0 0 0 0 0 0 0 0 0 0 5.7550 -2.2689 0.0000 O 0 0 0 0 0 0 0 0 0 0 0 0 7.8091 -8.0363 0.0000 O 0 0 0 0 0 0 0 0 0 0 0 0 8.3996 -9.0592 0.0000 * 0 0 0 0 0 0 0 0 0 0 0 0 10.7140 -5.1737 0.0000 O 0 0 0 0 0 0 0 0 0 0 0 0 4.6141 -1.9633 0.0000 * 0 0 0 0 0 0 0 0 0 0 0 0 9.3125 -3.0000 0.0000 Na 0 3 0 0 0 0 0 0 0 0 0 0 10.3652 -7.6959 0.0000 F 0 0 0 0 0 0 0 0 0 0 0 0 4 5 1 0 0 0 0 3 5 1 0 0 0 0 2 4 1 0 0 0 0 1 3 1 0 0 0 0 1 2 1 0 0 0 0 1 6 1 1 0 0 0 6 7 1 0 0 0 0 7 8 1 0 0 0 0 8

> <DESC_PART2>
9 2 0 0 0 0 8 10 1 0 0 0 0 8 11 1 0 0 0 0 3 12 1 6 0 0 0 12 13 1 0 0 0 0 4 14 1 1 0 0 0 11 15 1 0 0 0 0 5 17 1 6 0 0 0 M CHG 2 10 -1 16 1 M END</MOLFILE>
</SUGAR_LINKER>
<SUGAR_LINKER>
<RESIDUES>1_10; 1_22;</RESIDUES>
<MOLFILE> ACCLDraw02211416042D 0 0 0 0 0 999 V3000 M V30 BEGIN CTAB M V30 COUNTS 39 37 0 0 1 M V30 BEGIN ATOM M V30 1 O 29.3039 -5.3319 0 0 M V30 2 P 28.9982 -4.1911 0 0 CFG=3 M V30 3 O 27.8573 -3.8854 0 0 M V30 4 O 29.8333 -3.3559 0 0 CHG=-1 M V30 5 O 28.6925 -3.0502 0 0 M V30 6 * 27.5516 -2.7445 0 0 M V30 7 C 30.4447 -5.6376 0 0 M V30 8 C 30.7504 -6.7785 0 0 CFG=2 M V30 9 C 31.3371 -7.7947 0 0 CFG=2 M V30 10 C 32.4675 -7.642 0 0 M V30 11 C 32.6286 -6.5456 0 0 CFG=2 M V30 12 O 33.6515 -5.955 0 0 M V30 13 O 30.7466 -8.8176 0 0 M V30 14 * 31.3371 -9.8405 0 0 M V30 15 O 31.5855 -5.9433 0 0 M V30 16 Na 32.25 -3.7813 0 0 CHG=1 M V30 17 C 26.5288 -3.3351 0 0 M V30 18 O 25.5059 -2.7445 0 0 M V30 19 C 24.483 -3.3351 0 0 M V30 20 C 23.4602 -2.7445 0 0 M V30 21 O 22.4373 -3.3351 0 0 M V30 22 C 21.4144 -2.7445 0 0 M V30 23 C 20.3916 -3.3351 0 0 M V30 24 O 19.3687 -2.7445 0 0 M V30 25 C 18.3458 -3.3351 0 0 M V30 26 C 17.323 -2.7445 0 0 M V30 27 O 16.3001 -3.3351 0 0 M V30 28 C 15.2772 -2.7445 0 0 M V30 29 C 14.2544 -3.3351 0 0 M V30 30 O 13.2315 -2.7445 0 0 M V30 31 C 12.2086 -3.3351 0 0 M V30 32 C 11.1858 -2.7445 0 0 M V30 33 O 10.1629 -3.3351 0 0 M V30 34 P 9.1401 -2.7445 0 0 CFG=3 M V30 35 O 8.1172 -3.3351 0 0 M V30 36 O 9.1401 -1.5634 0 0 CHG=-1 M V30 37 O 8.1172 -2.154 0 0 M V30 38 * 7.0943 -2.7445 0 0 M V30 39 Na 12.125 -0.8125 0 0 CHG=1 M V30 END ATOM M V30 BEGIN BOND M V30 1 1 1 2 M V30 2 2 2 3 M V30 3 1 2 4 M V30 4 1 2 5 M V30 5 1 5 6 M V30 6 1 1 7 M V30 7 1 8 7 CFG=1 M V30 8 1 8 9 M V30 9 1 9 10 M V30 10 1 10 11 M V30 11 1 11 12 CFG=1 M V30 12 1 9 13 CFG=3 M V30 13 1 13 14 M V30 14 1 8 15 M V30 15 1 15 11 M V30 16 1 6 17 M V30 17 1 17 18 M V30 18 1 18 19 M V30 19 1 19 20 M V30 20 1 20 21 M V30 21 1 21 22 M V30 22 1 22 23 M V30 23 1 23 24 M V30 24 1 24 25 M V30 25 1 25 26 M V30 26 1 26 27 M V30 27 1 27 28 M V30 28 1 28 29 M V30 29 1 29 30 M V30 30 1 30 31 M V30 31 1 31 32 M V30 32 1 32 33 M V30 33 1 33 34 M V30 34 2 34 35 M V30 35 1 34 36 M V30 36 1 34 37 M V30 37 1 37 38 M V30 END BOND M V30 BEGIN COLLECTION M V30 MDLV30/STEABS ATOMS=(3 8 9 11) M V30 END COLLECTION M V30 END CTAB M END</MOLFILE>
</SUGAR_LINKER>
<SUGAR_LINKER>
<RESIDUES>1_30</RESIDUES>
<MOLFILE> ACCLDraw02211417062D 15 14 0 0 1 0 0 0 0 0999 V2000 14.2101 -4.4257 0.0000 O 0 0 0 0 0 0 0 0 0 0 0 0 15.3510 -4.7314 0.0000 C 0 0 0 0 0 0 0 0 0 0 0 0 15.6567 -5.8722 0.0000 C 0 0 2 0 0 0 0 0 0 0 0 0 16.2434 -6.8885 0.0000 C 0 0 2 0 0 0 0 0 0 0 0 0 17.3738 -6.7358 0.0000 C 0 0 0 0 0 0 0 0 0 0 0 0 17.5349 -5.6393 0.0000 C 0 0 2 0 0 0 0 0 0 0 0 0 18.5577 -5.0487 0.0000 O 0 0 0 0 0 0 0 0 0 0 0 0 15.6528 -7.9113 0.0000 O 0 0 0 0 0 0 0 0 0 0 0 0 16.4918 -5.0371 0.0000 O 0 0 0 0 0 0 0 0 0 0 0 0 17.1563 -2.8750 0.0000 Na 0 3 0 0 0 0 0 0 0 0 0 0 16.4880 -8.7465 0.0000 P 0 0 3 0 0 0 0 0 0 0 0 0 16.1823 -9.8874 0.0000 O 0 0 0 0 0 0 0 0 0 0 0 0 17.6289 -8.4408 0.0000 O 0 5 0 0 0 0 0 0 0 0 0 0 16.7937 -7.6057 0.0000 O 0 0 0 0 0 0 0 0 0 0 0 0 17.0175 -10.7225 0.0000 * 0 0 0 0 0 0 0 0 0 0 0 0 1 2 1 0 0 0 0 3 2 1 1 0 0 0 3 4 1 0 0 0 0 4 5 1 0 0 0 0 5 6 1 0 0 0 0 6 7 1 1 0 0 0 4 8 1 6 0 0 0 3 9 1 0 0 0 0 9 6 1 0 0 0 0 8 11 1 0 0 0 0 11 12 1 0 0 0 0 11 13 1 0 0 0 0 11 14 2 0 0 0 0 12 15 1 0 0 0 0 M CHG 2 10 1 13 -1 M END</MOLFILE>
</SUGAR_LINKER>
<SUGAR_LINKER>
<RESIDUES>1_1</RESIDUES>
<MOLFILE> ACCLDraw02211416452D 0 0 0 0 0 999 V3000 M V30 BEGIN CTAB M V30 COUNTS 45 44 4 0 1 M V30 BEGIN ATOM M V30 1 O 22.0226 -8.2382 0 0 M V30 2 P 21.7169 -7.0973 0 0 CFG=3 M V30 3 O 20.9511 -8.0416 0 0 M V30 4 O 22.5521 -6.2621 0 0 CHG=-1 M V30 5 O 21.4112 -5.9564 0 0 M V30 6 C 23.1635 -8.5439 0 0 M V30 7 C 23.4692 -9.6847 0 0 CFG=2 M V30 8 C 24.0559 -10.701 0 0 CFG=2 M V30 9 C 25.1863 -10.5483 0 0 M V30 10 C 25.3474 -9.4518 0 0 CFG=2 M V30 11 O 26.3702 -8.8612 0 0 M V30 12 O

> <DESC_PART3>
23.4653 -11.7238 0 0 M V30 13 * 24.0559 -12.7467 0 0 M V30 14 O 24.3043 -8.8496 0 0 M V30 15 Na 24.9688 -6.6875 0 0 CHG=1 M V30 16 C 20.3884 -6.547 0 0 M V30 17 C 19.3655 -5.9564 0 0 M V30 18 C 18.3426 -6.547 0 0 M V30 19 C 17.3198 -5.9564 0 0 M V30 20 C 16.2969 -6.547 0 0 M V30 21 C 15.274 -5.9564 0 0 M V30 22 N 14.2512 -6.547 0 0 CFG=3 M V30 23 C 13.2283 -5.9564 0 0 M V30 24 C 12.2054 -6.547 0 0 CFG=3 M V30 25 C 11.1826 -5.9564 0 0 M V30 26 C 10.1597 -6.547 0 0 M V30 27 C 9.1368 -5.9564 0 0 M V30 28 C 8.114 -6.547 0 0 M V30 29 N 7.0911 -5.9564 0 0 CFG=3 M V30 30 O 13.2283 -4.7753 0 0 M V30 31 C 6.0683 -6.547 0 0 M V30 32 O 5.0454 -5.9564 0 0 M V30 33 C 4.0225 -6.547 0 0 M V30 34 C 2.9997 -5.9564 0 0 M V30 35 O 6.0683 -7.7281 0 0 M V30 36 O 1.9768 -6.547 0 0 M V30 37 C 0.9539 -5.9564 0 0 M V30 38 N 12.5111 -7.6879 0 0 CFG=3 M V30 39 C 11.676 -8.523 0 0 M V30 40 O 11.9817 -9.6639 0 0 M V30 41 O 10.5351 -8.2173 0 0 M V30 42 C 13.0045 -10.2544 0 0 M V30 43 C 14.0274 -9.6639 0 0 M V30 44 O 15.0503 -10.2544 0 0 M V30 45 C 16.0731 -9.6639 0 0 M V30 END ATOM M V30 BEGIN BOND M V30 1 1 1 2 M V30 2 2 2 3 M V30 3 1 2 4 M V30 4 1 2 5 M V30 5 1 1 6 M V30 6 1 7 6 CFG=1 M V30 7 1 7 8 M V30 8 1 8 9 M V30 9 1 9 10 M V30 10 1 10 11 CFG=1 M V30 11 1 8 12 CFG=3 M V30 12 1 12 13 M V30 13 1 7 14 M V30 14 1 14 10 M V30 15 1 5 16 M V30 16 1 16 17 M V30 17 1 17 18 M V30 18 1 18 19 M V30 19 1 19 20 M V30 20 1 20 21 M V30 21 1 21 22 M V30 22 1 22 23 M V30 23 1 23 24 M V30 24 1 24 25 M V30 25 1 25 26 M V30 26 1 26 27 M V30 27 1 27 28 M V30 28 1 28 29 M V30 29 2 23 30 M V30 30 1 29 31 M V30 31 1 31 32 M V30 32 1 32 33 M V30 33 1 33 34 M V30 34 2 31 35 M V30 35 1 34 36 M V30 36 1 36 37 M V30 37 1 24 38 M V30 38 1 38 39 M V30 39 1 39 40 M V30 40 2 39 41 M V30 41 1 40 42 M V30 42 1 42 43 M V30 43 1 43 44 M V30 44 1 44 45 M V30 END BOND M V30 BEGIN SGROUP M V30 1 GEN 1 ATOMS=(3 34 33 36) XBONDS=(2 36 32) BRKXYZ=(9 1.47 -6.84 0 - M V30 1.47 -5.66 0 0 0 0) BRKXYZ=(9 4.53 -5.66 0 4.53 -6.84 0 0 0 0) M V30 2 DAT 2 PARENT=1 - M V30 FIELDDISP=" 0.0000 0.0000 DR ALL 1 6" - M V30 FIELDDATA=A M V30 3 GEN 3 ATOMS=(3 43 42 44) XBONDS=(2 41 44) BRKXYZ=(9 12.49 -10.55 0 - M V30 12.49 -9.37 0 0 0 0) BRKXYZ=(9 15.56 -9.37 0 15.56 -10.55 0 - M V30 0 0 0) M V30 4 DAT 4 PARENT=3 - M V30 FIELDDISP=" 0.0000 0.0000 DR ALL 1 6" - M V30 FIELDDATA=B M V30 END SGROUP M V30 BEGIN COLLECTION M V30 MDLV30/STEABS ATOMS=(3 7 8 10) M V30 END COLLECTION M V30 END CTAB M END</MOLFILE>
<POLYMER>
<POLYMER_CLASS>HOMOPOLYMER</POLYMER_CLASS>
<POLYMER_GEOMETRY>LINEAR</POLYMER_GEOMETRY>
<COPOLYMER_SEQUENCE_TYPE/>
<STRUCTURAL_REPEAT_UNIT>
<NUMBER_OF_STRUCTURAL_REPEAT_UNITS>2</NUMBER_OF_STRUCTURAL_REPEAT_UNITS>
<STRUCTURAL_REPEAT_UNIT_AMOUNT_TYPE>MOLE PERCENT</STRUCTURAL_REPEAT_UNIT_AMOUNT_TYPE>
<STRUCTURAL_REPEAT_UNIT_GROUP>
<ORIENTATION_OF_POLYMERIZATION>HEAD-TAIL</ORIENTATION_OF_POLYMERIZATION>
<STRUCTURAL_REPEAT_UNIT>A</STRUCTURAL_REPEAT_UNIT>
<DEGREE_POLYMERIZATION>
<AMOUNT>
<AVERAGE>450</AVERAGE>
<LOW_LIMIT/>
<HIGH_LIMIT/>
<UNIT/>
<NON_NUMERIC_VALUE/>
</AMOUNT>
</DEGREE_POLYMERIZATION>
</STRUCTURAL_REPEAT_UNIT_GROUP>
<STRUCTURAL_REPEAT_UNIT_GROUP>
<ORIENTATION_OF_POLYMERIZATION>HEAD-TAIL</ORIENTATION_OF_POLYMERIZATION>
<STRUCTURAL_REPEAT_UNIT>B</STRUCTURAL_REPEAT_UNIT>
<DEGREE_POLYMERIZATION>
<AMOUNT>
<AVERAGE>450</AVERAGE>
<LOW_LIMIT/>
<HIGH_LIMIT/>
<UNIT/>
<NON_NUMERIC_VALUE/>
</AMOUNT>
</DEGREE_POLYMERIZATION>
</STRUCTURAL_REPEAT_UNIT_GROUP>
</STRUCTURAL_REPEAT_UNIT>
</POLYMER>
</SUGAR_LINKER>
</SUBUNIT_GROUP>
<AREA_OF_HYBRIDISATION/>
<MOLECULAR_WEIGHT>
<MOLECULAR_WEIGHT_TYPE>NUMBER</MOLECULAR_WEIGHT_TYPE>
<MOLECULAR_WEIGHT_METHOD>size exclusion chromatography</MOLECULAR_WEIGHT_METHOD>
<AMOUNT>
<AVERAGE>50</AVERAGE>
<LOW_LIMIT/>
<HIGH_LIMIT/>
<UNIT>kDa</UNIT>
<NON_NUMERIC_VALUE/>
</AMOUNT>
</MOLECULAR_WEIGHT>
</NUCLEIC_ACID>
</ELEMENT_TYPE>
</SINGLE_SUBSTANCE>
</SUBSTANCE>

$$$$
> <SUBSTANCE_ID>
150532

> <UNII>
LCT264LTYE

> <DESC_PART1>
<PROTEIN>
 <SEQUENCE_TYPE>COMPLETE</SEQUENCE_TYPE>
 <NUMBER_OF_SUBUNITS>1</NUMBER_OF_SUBUNITS>
<SUBUNIT_GROUP>
 <SUBUNIT>1</SUBUNIT>
 <LENGTH>108</LENGTH>
 <SEQUENCE>DIQMTQSPSSLSASVGDRVTITCRASRPIWPFLEWYQQKPGKAPKLLIYFTSRLRHGVPSRFSGSGSGTCFTLTISSLQPEDFATYYCLQNVANPATFSQGTKVEIKR </SEQUENCE>
 </SUBUNIT_GROUP>
 <DISULFIDE_LINKAGE>1_23-1_88</DISULFIDE_LINKAGE>
<OTHER_LINKAGE>
 <SITE/>
 <LINKAGE_TYPE/>
 </OTHER_LINKAGE>
<GLYCOSYLATION>
 <GLYCOSYLATION_TYPE/>
 <N_GLYCOSYLATION/>
 <O_GLYCOSYLATION/>
 <C_GLYCOSYLATION/>
 </GLYCOSYLATION>
<MODIFICATION_GROUP>
<PHYSICAL_MODIFICATION_GROUP>
 <ROLE/>
 <NUMBER_OF_PARAMETERS>0</NUMBER_OF_PARAMETERS>
<PARAMETER_GROUP>
 <PARAMETER/>
<AMOUNT>
 <AVERAGE/>
 <LOW_LIMIT/>
 <HIGH_LIMIT/>
 <UNIT/>
 <NON_NUMERIC_VALUE/>
 </AMOUNT>
 </PARAMETER_GROUP>
 </PHYSICAL_MODIFICATION_GROUP>
<AGENT_MODIFICATION_GROUP>
 <AGENT_MODIFICATION_TYPE/>
 <ROLE/>
 <MODIFICATION_AGENT/>
 <MODIFICATION_AGENT_ID/>
 <MODIFICATION_PROCESS/>
 <AMOUNT_TYPE/>
<AMOUNT>
 <AVERAGE/>
 <LOW_LIMIT/>
 <HIGH_LIMIT/>
 <UNIT/>
 <NON_NUMERIC_VALUE/>
 </AMOUNT>
 </AGENT_MODIFICATION_GROUP>
<STRUCTURAL_MODIFICATION_GROUP>
 <RESIDUE_MODIFIED>Cys</RESIDUE_MODIFIED>
 <RESIDUE_SITE>1_70</RESIDUE_SITE>
 <NUMBER_OF_FRAGMENTS_MOIETIES/>
 <AMOUNT_TYPE/>
<MOLECULAR_FRAGMENT_MOIETY>
 <STRUCTURAL_MODIFICATION_TYPE/>
 <ROLE>AMINO ACID SUBSTITUTION</ROLE>
 <FRAGMENT_NUMBER/>
 <MOLECULAR_FRAGMENT_NAME/>
 <MOLECULAR_FRAGMENT_ID/>
 <MOLECULAR_FRAGMENT_INCHI/>
 <MOLFILE> ACCLDraw04121409442D 37 37 0 0 1 0 0 0 0 0999 V2000 16.7242 -5.3062 0.0000 S 0 0 0 0 0 0 0 0 0 0 0 0 17.4185 -6.2617 0.0000 C 0 0 0 0 0 0 0 0 0 0 0 0 18.5931 -6.1383 0.0000 C 0 0 1 0 0 0 0 0 0 0 0 0 19.0735 -5.0593 0.0000 C 0 0 0 0 0 0 0 0 0 0 0 0 20.2481 -4.9358 0.0000 O 0 0 0 0 0 0 0 0 0 0 0 0 19.2873 -7.0938 0.0000 N 0 0 3 0 0 0 0 0 0 0 0 0 18.8069 -8.1728 0.0000 H 0 0 0 0 0 0 0 0 0 0 0 0 18.3792 -4.1038 0.0000 O 0 0 0 0 0 0 0 0 0 0 0 0 15.5496 -5.4297 0.0000 C 0 0 3 0 0 0 0 0 0 0 0 0 14.9590 -6.4525 0.0000 C 0 0 0 0 0 0 0 0 0 0 0 0 13.8037 -6.2070 0.0000 C 0 0 0 0 0 0 0 0 0 0 0 0 13.6803 -5.0323 0.0000 N 0 0 3 0 0 0 0 0 0 0 0 0 14.7593 -4.5519 0.0000 C 0 0 0 0 0 0 0 0 0 0 0 0 15.0048 -3.3966 0.0000 O 0 0 0 0 0 0 0 0 0 0 0 0 12.9260 -6.9973 0.0000 O 0 0 0 0 0 0 0 0 0 0 0 0 12.6574 -4.4418 0.0000 C 0 0 0 0 0 0 0 0 0 0 0 0 11.6346 -5.0323 0.0000 C 0 0 0 0 0 0 0 0 0 0 0 0 10.6117 -4.4418 0.0000 C 0 0 0 0 0 0 0 0 0 0 0 0 9.5888 -5.0323 0.0000 N 0 0 3 0 0 0 0 0 0 0 0 0 10.6117 -3.2607 0.0000 O 0 0 0 0 0 0 0 0 0 0 0 0 9.5888 -6.2134 0.0000 C 0 0 0 0 0 0 0 0 0 0 0 0 8.5660 -6.8040 0.0000 C 0 0 0 0 0 0 0 0 0 0 0 0 8.5660 -7.9851 0.0000 C 0 0 0 0 0 0 0 0 0 0 0 0 7.5431 -8.5756 0.0000 O 0 0 0 0 0 0 0 0 0 0 0 0 6.5202 -7.9851 0.0000 C 0 0 0 0 0 0 0 0 0 0 0 0 6.5202 -6.8040 0.0000 C 0 0 3 0 0 0 0 0 0 0 0 0 5.4974 -6.2134 0.0000 O 0 0 0 0 0 0 0 0 0 0 0 0 4.4745 -6.8040 0.0000 C 0 0 0 0 0 0 0 0 0 0 0 0 3.4516 -6.2134 0.0000 C 0 0 0 0 0 0 0 0 0 0 0 0 2.4288 -6.8040 0.0000 O 0 0 0 0 0 0 0 0 0 0 0 0 1.4059 -6.2134 0.0000 C 0 0 0 0 0 0 0 0 0 0 0 0 7.5431 -6.2134 0.0000 C 0 0 0 0 0 0 0 0 0 0 0 0 7.5431 -5.0323 0.0000 O 0 0 0 0 0 0 0 0 0 0 0 0 6.5202 -4.4418 0.0000 C 0 0 0 0 0 0 0 0 0 0 0 0 5.4974 -5.0323 0.0000 C 0 0 0 0 0 0 0 0 0 0 0 0 4.4745 -4.4418 0.0000 O 0 0 0 0 0 0 0 0 0 0 0 0 3.4516 -5.0323 0.0000 C 0 0 0 0 0 0 0 0 0 0 0 0 2 1 1 0 0 0 0 3 2 1 1 0 0 0 3 4 1 0 0 0 0 4 5 2 0 0 0 0 6 3 1 0 0 0 0 6 7 1 0 0 0 0 4 8 1 0 0 0 0 1 9 1 0 0 0 0 10 11 1 0 0 0 0 11 12 1 0 0 0 0 13 12 1 0 0 0 0 10 9 1 0 0 0 0 9 13 1 0 0 0 0 13 14 2 0 0 0 0 11 15 2 0 0 0 0 12 16 1 0 0 0 0 16 17 1 0 0 0 0 17 18 1 0 0 0 0 18 19 1 0 0 0 0 18 20 2 0 0 0 0 19 21 1 0 0 0 0 21 22 1 0 0 0 0 22 23 1 0 0 0 0 23 24 1 0 0 0 0 24 25 1 0 0 0 0 25 26 1 0 0 0 0 26 27 1 0 0 0 0 27 28 1 0 0 0 0 28 29 1 0 0 0 0 29 30 1 0 0 0 0 30 31 1 0 0 0 0 26 32 1 0 0 0 0 32 33 1 0 0 0 0 33 34 1 0 0 0 0 34 35 1 0 0 0 0 35 36 1 0 0 0 0 36 37 1 0 0 0 0 M STY 7 1 SUP 2 GEN 3 DAT 4 GEN 5 DAT 6 DAT 7 DAT M SLB

> <DESC_PART2>
7 1 1 2 2 3 3 4 4 5 5 6 6 7 7M SPL 2 3 2 5 4 M SAL 1 6 1 2 3 4 5 6 M SBL 1 3 8 7 6 M SMT 1 C M SAP 1 3 6 7 Al 4 8 Br 1 9 Cx M SCL 1 MODAA M SAL 2 3 27 28 29 M SBL 2 2 30 27 M SDI 2 4 2.9402 -7.0993 2.9402 -5.9182 M SDI 2 4 6.0088 -5.9182 6.0088 -7.0993 M SDT 3 fdareg_sgroup M SDD 3 0.0000 0.0000 DR ALL 1 M SED 3 A M SAL 4 3 33 34 35 M SBL 4 2 36 33 M SDI 4 4 4.9859 -5.3276 4.9859 -4.1465 M SDI 4 4 8.1336 -5.6229 6.9525 -5.6229 M SDT 5 fdareg_sgroup M SDD 5 0.0000 0.0000 DR ALL 1 M SED 5 B M SAL 6 6 1 2 3 4 5 6 M SDT 6 SMMX:sequence position data M SDD 6 11.0867 -5.2641 DA ALL 1 M SAL 7 6 1 2 3 4 5 6 M SDT 7 SMMX:modification M SDD 7 0.0000 0.0000 DR ALL 1 M SDS EXP 1 1 M END </MOLFILE>
 <FRAGMENT_CONNECTIVTY/>
<AMOUNT>
 <AVERAGE/>
 <LOW_LIMIT/>
 <HIGH_LIMIT/>
 <UNIT/>
 <NON_NUMERIC_VALUE/>
 </AMOUNT>
<POLYMER>
 <POLYMER_CLASS>HOMOPOLYMER</POLYMER_CLASS>
 <POLYMER_GEOMETRY>BRANCHED</POLYMER_GEOMETRY>
<MONOMER_DESCRIPTION>
 <NUMBER_OF_MONOMERS>1</NUMBER_OF_MONOMERS>
 <MONOMER_AMOUNT_TYPE>MOLE PERCENT</MONOMER_AMOUNT_TYPE>
<MONOMER_GROUP>
 <MONOMER_ID>JJH7GNN18P</MONOMER_ID>
 <MONOMER_NAME>ETHYLENE OXIDE</MONOMER_NAME>
<AMOUNT>
 <AVERAGE/>
 <LOW_LIMIT/>
 <UNIT>MOLE PERCENT</UNIT>
 <NON_NUMERIC_VALUE/>
 </AMOUNT>
 </MONOMER_GROUP>
 </MONOMER_DESCRIPTION>
<STRUCTURAL_REPEAT_UNIT>
 <NUMBER_OF_STRUCTURAL_REPEAT_UNITS/>
 <STRUCTURAL_REPEAT_UNIT_AMOUNT_TYPE>MOLE PERCENT</STRUCTURAL_REPEAT_UNIT_AMOUNT_TYPE>
<STRUCTURAL_REPEAT_UNIT_GROUP>
 <ORIENTATION_OF_POLYMERIZATION>HEAD-TAIL</ORIENTATION_OF_POLYMERIZATION>
 <STRUCTURAL_REPEAT_UNIT>A</STRUCTURAL_REPEAT_UNIT>
<AMOUNT>
 <AVERAGE/>
 <LOW_LIMIT/>
 <HIGH_LIMIT/>
 <UNIT/>
 <NON_NUMERIC_VALUE/>
 </AMOUNT>
<DEGREE_POLYMERIZATION>
<AMOUNT>
 <AVERAGE/>
 <LOW_LIMIT/>
 <HIGH_LIMIT/>
 <UNIT/>
 <NON_NUMERIC_VALUE/>
 </AMOUNT>
 </DEGREE_POLYMERIZATION>
 </STRUCTURAL_REPEAT_UNIT_GROUP>
 </STRUCTURAL_REPEAT_UNIT>
<STRUCTURAL_REPEAT_UNIT>
 <NUMBER_OF_STRUCTURAL_REPEAT_UNITS/>
 <STRUCTURAL_REPEAT_UNIT_AMOUNT_TYPE>MOLE PERCENT</STRUCTURAL_REPEAT_UNIT_AMOUNT_TYPE>
<STRUCTURAL_REPEAT_UNIT_GROUP>
 <ORIENTATION_OF_POLYMERIZATION>HEAD-TAIL</ORIENTATION_OF_POLYMERIZATION>
 <STRUCTURAL_REPEAT_UNIT>B</STRUCTURAL_REPEAT_UNIT>
<AMOUNT>
 <AVERAGE>450</AVERAGE>
 <LOW_LIMIT/>
 <HIGH_LIMIT/>
 <UNIT/>
 <NON_NUMERIC_VALUE/>
 </AMOUNT>
<DEGREE_POLYMERIZATION>
<AMOUNT>
 <AVERAGE/>
 <LOW_LIMIT/>
 <HIGH_LIMIT/>
 <UNIT/>
 <NON_NUMERIC_VALUE/>
 </AMOUNT>
 </DEGREE_POLYMERIZATION>
 </STRUCTURAL_REPEAT_UNIT_GROUP>
 </STRUCTURAL_REPEAT_UNIT>
<MOLECULAR_WEIGHT>
 <MOLECULAR_WEIGHT_TYPE>NUMBER AVERAGE</MOLECULAR_WEIGHT_TYPE>
 <MOLECULAR_WEIGHT_METHOD/>
<AMOUNT>
 <AVERAGE/>
 <LOW_LIMIT/>
 <HIGH_LIMIT/>
 <UNIT/>
 <NON_NUMERIC_VALUE/>
 </AMOUNT>
 </MOLECULAR_WEIGHT>
 <COMMENTS/>
 </POLYMER>
 </MOLECULAR_FRAGMENT_MOIETY>
 </STRUCTURAL_MODIFICATION_GROUP>
 </MODIFICATION_GROUP>
<PROPERTY_GROUP>
 <PROPERTY_TYPE/>
 <PROPERTY/>
<PROPERTY_DESCRIPTION>
 <SUBSTANCE_NAME/>
 <SUBSTANCE_ID/>
 <SUBSTANCE_ID/>
 <AMOUNT_TYPE/>
<AMOUNT>
 <AVERAGE/>
 <LOW_LIMIT/>
 <HIGH_LIMIT/>
 <UNIT/>
 <NON_NUMERIC_VALUE/>
 </AMOUNT>
 </PROPERTY_DESCRIPTION>
 </PROPERTY_GROUP>
<MOLECULAR_WEIGHT>
 <MOLECULAR_WEIGHT_TYPE/>
 <MOLECULAR_WEIGHT_METHOD/>
<AMOUNT>
 <AVERAGE>52000</AVERAGE>
 <LOW_LIMIT/>
 <HIGH_LIMIT/>
 <UNIT>Da</UNIT>
 <NON_NUMERIC_VALUE/>
 </AMOUNT>
 </MOLECULAR_WEIGHT>
 <COMMENTS/>
 <PUBLIC_DOMAIN/>
 </PROTEIN>

$$$$
> <SUBSTANCE_ID>
90544

> <UNII>
3V0J65M6J3

> <DESC_PART1>
<SUBSTANCE>
 <SUBSTANCE_ID/>
<NAME_GROUP>
 <NAME/>
 <PUBLIC_DOMAIN/>
 <NAME_TYPE/>
 <LANGUAGE_ISOCODE/>
<OFFICIAL_NAME_GROUP>
 <OFFICIAL_NAME_TYPE/>
 <OFFICIAL_NAME_STATUS/>
 <OFFICIAL_NAME_STATUS_CHANGE_DATE>Tue Jun 28 09:25:20 2011</OFFICIAL_NAME_STATUS_CHANGE_DATE>
<OFFICIAL_NAME_JURISDICTION_GROUP>
 <OFFICIAL_NAME_JURISDICTION/>
 </OFFICIAL_NAME_JURISDICTION_GROUP>
 <OFFICIAL_NAME_DOMAIN/>
 </OFFICIAL_NAME_GROUP>
<REFERENCE_SOURCE_GROUP>
 <PUBLIC_DOMAIN/>
 <REFERENCE_SOURCE_TYPE/>
 <REFERENCE_SOURCE_IDENTIFIER/>
 <REFERENCE_SOURCE_CITATION/>
 </REFERENCE_SOURCE_GROUP>
 </NAME_GROUP>
<CODE_GROUP>
 <CODE/>
 <CODE_SYSTEM/>
 <CODE_SYSTEM_ID/>
 <CODE_STATUS/>
 <CODE_STATUS_CHANGE_DATE>Tue Jun 28 09:25:20 2011 </CODE_STATUS_CHANGE_DATE>
<REFERENCE_SOURCE_GROUP>
 <PUBLIC_DOMAIN/>
 <REFERENCE_SOURCE_TYPE/>
 <REFERENCE_SOURCE_IDENTIFIER/>
 <REFERENCE_SOURCE_CITATION/>
 </REFERENCE_SOURCE_GROUP>
 </CODE_GROUP>
<REFERENCE_INFORMATION>
<SUBSTANCE_RELATIONSHIP_GROUP>
 <RELATIONSHIP/>
 <TYPE_OF_INTERACTION/>
 <SUBSTANCE_ID/>
 <SUBSTANCE_NAME/>
 <RELATIONSHIP/>
 <AMOUNT_TYPE/>
<AMOUNT>
 <AVERAGE/>
 <LOW_LIMIT/>
 <HIGH_LIMIT/>
 <UNIT/>
 <NON_NUMERIC_VALUE/>
 </AMOUNT>
<REFERENCE_SOURCE_GROUP>
 <PUBLIC_DOMAIN/>
 <REFERENCE_SOURCE_TYPE/>
 <REFERENCE_SOURCE_IDENTIFIER/>
 <REFERENCE_SOURCE_CITATION/>
 </REFERENCE_SOURCE_GROUP>
 </SUBSTANCE_RELATIONSHIP_GROUP>
<GENE_GROUP>
 <GENE_SEQUENCE_ORIGIN>HUMAN</GENE_SEQUENCE_ORIGIN>
 <GENE_ID>2641 </GENE_ID>
 <GENE_NAME>GCG GLUCAGON (HOMO SAPIENS)</GENE_NAME>
<REFERENCE_SOURCE_GROUP>
 <PUBLIC_DOMAIN>YES</PUBLIC_DOMAIN>
 <REFERENCE_SOURCE_TYPE>PUBLIC DATABASE</REFERENCE_SOURCE_TYPE>
 <REFERENCE_SOURCE_IDENTIFIER>GENE</REFERENCE_SOURCE_IDENTIFIER>
 <REFERENCE_SOURCE_CITATION>http://www.ncbi.nlm.nih.gov/gene/2641</REFERENCE_SOURCE_CITATION>
 </REFERENCE_SOURCE_GROUP>
 </GENE_GROUP>
<SUBSTANCE_CLASSIFICATION>
 <DOMAIN>BIOLOGICAL</DOMAIN>
 <SUBSTANCE_TYPE>FUSION PROTEIN</SUBSTANCE_TYPE>
 <SUBSTANCE_SUBTYPE>GLUCAGON LIKE PEPTIDE 1</SUBSTANCE_SUBTYPE>
 <SUBSTANCE_SUBTYPE>ELASTIN-LIKE POLYMERS (ELP)</SUBSTANCE_SUBTYPE>
<REFERENCE_SOURCE_GROUP>
 <PUBLIC_DOMAIN>YES</PUBLIC_DOMAIN>
 <REFERENCE_SOURCE_TYPE>COMPANY COMMUNICATION</REFERENCE_SOURCE_TYPE>
 <REFERENCE_SOURCE_IDENTIFIER/>
 <REFERENCE_SOURCE_CITATION>http://www.phasebio.com/content.php?article=9</REFERENCE_SOURCE_CITATION>
 </REFERENCE_SOURCE_GROUP>
 </SUBSTANCE_CLASSIFICATION>
<TARGET_GROUP>
 <TARGET_ORGANISM/>
 <TARGET_TYPE/>
 <TARGET_NAME/>
 <TARGET_ID/>
 <TARGET_ID_SOURCE/>
 <INTERACTION_TYPE/>
<REFERENCE_SOURCE_GROUP>
 <PUBLIC_DOMAIN>STN</PUBLIC_DOMAIN>
 <REFERENCE_SOURCE_TYPE/>
 <REFERENCE_SOURCE_IDENTIFIER/>
 <REFERENCE_SOURCE_CITATION/>
 </REFERENCE_SOURCE_GROUP>
 </TARGET_GROUP>
 <COMMENTS/>
 </REFERENCE_INFORMATION>
<SINGLE_SUBSTANCE>
<STRUCTURE>
 <STRUCTURAL_REPRESENTATION_TYPE/>
 <STRUCTURAL_REPRESENTATION/>
 <STEREOCHEMISTRY/>
 <OPTICAL_ACTIVITY/>
 <PUBLIC_DOMAIN/>
<ISOTOPE_GROUP>
 <NUCLIDE_ID/>
 <NUCLIDE_NAME/>
 <SUBSTITUTION_TYPE/>
 </ISOTOPE_GROUP>
 </STRUCTURE>
<ELEMENT_TYPE>
<PROTEIN>
 <SEQUENCE_TYPE>COMPLETE</SEQUENCE_TYPE>
 <NUMBER_OF_SUBUNITS>1</NUMBER_OF_SUBUNITS>
<SUBUNIT_GROUP>
 <SUBUNIT>1</SUBUNIT>
 <LENGTH>636</LENGTH>
 <SEQUENCE>HGEGTFTSDVSSYLEGQAAKEFIAWLVKGRGVPGVGVPGVGVPGGGVPGAGVPGVGVPGVGVPGVGVPGGGVPGAGVPGGGVPGVGVPGVGVPGGGVPGAGVPGVGVPGVGVPGVGVPGGGVPGAGVPGGGVPGVGVPGVGVPGGGVPGAGVPGVGVPGVGVPGVGVPGGGVPGAGVPGGGVPGVGVPGVGVPGGGVPGAGVPGVGVPGVGVPGVGVPGGGVPGAGVPGGGVPGVGVPGVGVPGGGVPGAGVPGVGVPGVGVPGVGVPGGGVPGAGVPGGGVPGVGVPGVGVPGGGVPGAGVPGVGVPGVGVPGVGVPGGGVPGAGVPGGGVPGVGVPGVGVPGGGVPGAGVPGVGVPGVGVPGVGVPGGGVPGAGVPGGGVPGVGVPGVGVPGGGVPGAGVPGVGVPGVGVPGVGVPGGGVPGAGVPGGGVPGVGVPGVGVPGGGVPGAGVPGVGVPGVGVPGVGVPGGGVPGAGVPGGGVPGVGVPGVGVPGGGVPGAGVPGVGVPGVGVPGVGVPGGGVPGAGVPGGGVPGVGVPGVGVPGGGVPGAGVPGVGVPGVGVPGVGVPGGGVPGAGVPGGGVPGVGVPGVGVPGGGVPGAGVPGVGVPGVGVPGVGVPGGGVPGAGVPGGGVPGWP</SEQUENCE>
 </SUBUNIT_GROUP>
 <DISULFIDE_LINKAGE/>
<GLYCO

> <DESC_PART2>
SYLATION>
 <GLYCOSYLATION_TYPE/>
 <N_GLYCOSYLATION/>
 <O_GLYCOSYLATION/>
 <C_GLYCOSYLATION/>
 </GLYCOSYLATION>
<MODIFICATION_GROUP>
<PHYSICAL_MODIFICATION_GROUP>
 <ROLE/>
 <NUMBER_OF_PARAMETERS>0</NUMBER_OF_PARAMETERS>
<PARAMETER_GROUP>
 <PARAMETER/>
<AMOUNT>
 <AVERAGE/>
 <LOW_LIMIT/>
 <HIGH_LIMIT/>
 <UNIT/>
 <NON_NUMERIC_VALUE/>
 </AMOUNT>
 </PARAMETER_GROUP>
 </PHYSICAL_MODIFICATION_GROUP>
<AGENT_MODIFICATION_GROUP>
 <AGENT_MODIFICATION_TYPE/>
 <ROLE/>
 <MODIFICATION_AGENT/>
 <MODIFICATION_AGENT_ID/>
 <MODIFICATION_PROCESS/>
 <AMOUNT_TYPE/>
<AMOUNT>
 <AVERAGE/>
 <LOW_LIMIT/>
 <HIGH_LIMIT/>
 <UNIT/>
 <NON_NUMERIC_VALUE/>
 </AMOUNT>
 </AGENT_MODIFICATION_GROUP>
<STRUCTURAL_MODIFICATION_GROUP>
 <RESIDUE_MODIFIED/>
 <RESIDUE_SITE/>
 <NUMBER_OF_FRAGMENTS_MOIETIES/>
 <AMOUNT_TYPE/>
<MOLECULAR_FRAGMENT_MOIETY>
 <STRUCTURAL_MODIFICATION_TYPE/>
 <ROLE/>
 <FRAGMENT_NUMBER/>
 <MOLECULAR_FRAGMENT_NAME/>
 <MOLECULAR_FRAGMENT_ID/>
 <MOLECULAR_FRAGMENT_INCHI/>
 <FRAGMENT_CONNECTIVTY/>
<AMOUNT>
 <AVERAGE/>
 <LOW_LIMIT/>
 <HIGH_LIMIT/>
 <UNIT/>
 <NON_NUMERIC_VALUE/>
 </AMOUNT>
 </MOLECULAR_FRAGMENT_MOIETY>
 </STRUCTURAL_MODIFICATION_GROUP>
 </MODIFICATION_GROUP>
<PROPERTY_GROUP>
 <PROPERTY_TYPE/>
 <PROPERTY/>
<PROPERTY_DESCRIPTION>
 <SUBSTANCE_NAME/>
 <SUBSTANCE_ID/>
 <SUBSTANCE_ID/>
 <AMOUNT_TYPE/>
<AMOUNT>
 <AVERAGE/>
 <LOW_LIMIT/>
 <HIGH_LIMIT/>
 <UNIT/>
 <NON_NUMERIC_VALUE/>
 </AMOUNT>
 </PROPERTY_DESCRIPTION>
 </PROPERTY_GROUP>
<MOLECULAR_WEIGHT>
 <MOLECULAR_WEIGHT_TYPE>NUMBER</MOLECULAR_WEIGHT_TYPE>
 <MOLECULAR_WEIGHT_METHOD>CALCULATED</MOLECULAR_WEIGHT_METHOD>
<AMOUNT>
 <AVERAGE>50830</AVERAGE>
 <LOW_LIMIT/>
 <HIGH_LIMIT/>
 <UNIT/>
 <NON_NUMERIC_VALUE/>
 </AMOUNT>
 </MOLECULAR_WEIGHT>
 <COMMENTS/>
 <PUBLIC_DOMAIN/>
 </PROTEIN>
 </ELEMENT_TYPE>
<REFERENCE_SOURCE_GROUP>
 <PUBLIC_DOMAIN/>
 <REFERENCE_SOURCE_TYPE/>
 <REFERENCE_SOURCE_IDENTIFIER/>
 <REFERENCE_SOURCE_CITATION/>
 </REFERENCE_SOURCE_GROUP>
 </SINGLE_SUBSTANCE>
 </SUBSTANCE>

$$$$
> <SUBSTANCE_ID>
34220

> <UNII>
5JT3N61JSP

> <DESC_PART1>
<STRUCTURALLY_DIVERSE>
<SOURCE_MATERIAL>
<SOURCE_MATERIAL_CLASS>ORGANISM</SOURCE_MATERIAL_CLASS>
<SOURCE_MATERIAL_TYPE>BACTERIUM</SOURCE_MATERIAL_TYPE>
<SOURCE_MATERIAL_STATE/>
<PARENT_SUBSTANCE_ID>1AF1QK263C</PARENT_SUBSTANCE_ID>
<PARENT_SUBSTANCE_NAME>NEISSERIA MENINGITIDIS SEROGROUP W-135</PARENT_SUBSTANCE_NAME>
<DEVELOPMENTAL_STAGE/>
<PART_GROUP>
<PART>BACTERIAL CAPSULE</PART>
<PART_LOCATION/>
</PART_GROUP>
<FRACTION>
<MATERIAL_TYPE/>
<FRACTION>POLYSACCHARIDE ANTIGEN</FRACTION>
</FRACTION>
<ORGANISM>
<KINGDOM/>
<PHYLUM/>
<CLASS/>
<ORDER/>
<FAMILY/>
<GENUS/>
<SPECIES/>
<HYBRID_SPECIES_MATERNAL_ORGANISM_ID/>
<HYBRID_SPECIES_PATERNAL_ORGANISM_ID/>
<HYBRID_TYPE/>
<INFRASPECIFIC_TYPE/>
<INFRASPECIFIC_DESCRIPTION/>
</ORGANISM>
</SOURCE_MATERIAL>
<MODIFICATION_GROUP>
<MODIFICATION_TYPE/>
<RESIDUE_MODIFIED/>
<RESIDUE_SITE/>
<PHYSICAL_MODIFICATION>
<ROLE/>
<NUMBER_OF_PARAMETERS/>
<PARAMETER_GROUP>
<PARAMETER/>
<AMOUNT_TYPE/>
<AMOUNT>
<AVERAGE/>
<LOW_LIMIT/>
<HIGH_LIMIT/>
<UNIT/>
<NON_NUMERIC_VALUE/>
</AMOUNT>
</PARAMETER_GROUP>
</PHYSICAL_MODIFICATION>
<STRUCTURAL_MODIFICATION>
<STRUCTURAL_MODIFICATION_TYPE/>
<MOIETY>
<ROLE/>
<MOIETY_ID/>
<MOIETY_NAME/>
<AMOUNT_TYPE/>
<AMOUNT>
<AVERAGE/>
<LOW_LIMIT/>
<HIGH_LIMIT/>
<UNIT/>
<NON_NUMERIC_VALUE/>
</AMOUNT>
</MOIETY>
<MOLECULAR_FRAGMENT>
<ROLE/>
<MOLECULAR_FRAGMENT_ID/>
<MOLECULAR_FRAGMENT_NAME/>
<AMOUNT_TYPE/>
<AMOUNT>
<AVERAGE/>
<LOW_LIMIT/>
<HIGH_LIMIT/>
<UNIT/>
<NON_NUMERIC_VALUE/>
</AMOUNT>
</MOLECULAR_FRAGMENT>
</STRUCTURAL_MODIFICATION>
<AGENT_MODIFICATION>
<AGENT_MODIFICATION_TYPE>CHEMICAL</AGENT_MODIFICATION_TYPE>
<ROLE>DEPOLYMERIZATION</ROLE>
<MODIFICATION_AGENT_ID/>
<MODIFICATION_AGENT/>
<MODIFICATION_PROCESS/>
<AMOUNT_TYPE/>
<AMOUNT>
<AVERAGE/>
<LOW_LIMIT/>
<HIGH_LIMIT/>
<UNIT/>
<NON_NUMERIC_VALUE/>
</AMOUNT>
</AGENT_MODIFICATION>
<AGENT_MODIFICATION>
<AGENT_MODIFICATION_TYPE>CHEMICAL</AGENT_MODIFICATION_TYPE>
<ROLE>ACTIVATION FOR REDUCTIVE AMINATION</ROLE>
<MODIFICATION_AGENT_ID/>
<MODIFICATION_AGENT/>
<MODIFICATION_PROCESS/>
<AMOUNT_TYPE/>
<AMOUNT>
<AVERAGE/>
<LOW_LIMIT/>
<HIGH_LIMIT/>
<UNIT/>
<NON_NUMERIC_VALUE/>
</AMOUNT>
</AGENT_MODIFICATION>
<AGENT_MODIFICATION>
<AGENT_MODIFICATION_TYPE>CHEMICAL</AGENT_MODIFICATION_TYPE>
<ROLE>CONJUGATION</ROLE>
<MODIFICATION_AGENT_ID>08VC9WC084</MODIFICATION_AGENT_ID>
<MODIFICATION_AGENT>CORYNEBACTERIUM DIPHTHERIAE CRM197 PROTEIN</MODIFICATION_AGENT>
<MODIFICATION_PROCESS/>
<AMOUNT_TYPE/>
<AMOUNT>
<AVERAGE/>
<LOW_LIMIT/>
<HIGH_LIMIT/>
<UNIT/>
<NON_NUMERIC_VALUE/>
</AMOUNT>
</AGENT_MODIFICATION>
</MODIFICATION_GROUP>
<PROPERTY_GROUP>
<PROPERTY_TYPE/>
<PROPERTY_NAME/>
<SUBSTANCE_ID/>
<SUBSTANCE_NAME/>
<AMOUNT_TYPE/>
<AMOUNT>
<AVERAGE/>
<LOW_LIMIT/>
<HIGH_LIMIT/>
<UNIT/>
<NON_NUMERIC_VALUE/>
</AMOUNT>
</PROPERTY_GROUP>
<COMMENT/>
</STRUCTURALLY_DIVERSE>

$$$$
> <SUBSTANCE_ID>
34214

> <UNII>
3O44U6XYQK

> <DESC_PART1>
<STRUCTURALLY_DIVERSE>
<SOURCE_MATERIAL>
<SOURCE_MATERIAL_CLASS>ORGANISM</SOURCE_MATERIAL_CLASS>
<SOURCE_MATERIAL_TYPE>BACTERIUM</SOURCE_MATERIAL_TYPE>
<SOURCE_MATERIAL_STATE/>
<PARENT_SUBSTANCE_ID>1N776P715A</PARENT_SUBSTANCE_ID>
<PARENT_SUBSTANCE_NAME>NEISSERIA MENINGITIDIS SEROGROUP A</PARENT_SUBSTANCE_NAME>
<DEVELOPMENTAL_STAGE/>
<PART_GROUP>
<PART>BACTERIAL CAPSULE</PART>
<PART_LOCATION/>
</PART_GROUP>
<FRACTION>
<MATERIAL_TYPE/>
<FRACTION>POLYSACCHARIDE ANTIGEN</FRACTION>
</FRACTION>
<ORGANISM>
<KINGDOM/>
<PHYLUM/>
<CLASS/>
<ORDER/>
<FAMILY/>
<GENUS/>
<SPECIES/>
<HYBRID_SPECIES_MATERNAL_ORGANISM_ID/>
<HYBRID_SPECIES_PATERNAL_ORGANISM_ID/>
<HYBRID_TYPE/>
<INFRASPECIFIC_TYPE/>
<INFRASPECIFIC_DESCRIPTION/>
</ORGANISM>
</SOURCE_MATERIAL>
<MODIFICATION_GROUP>
<MODIFICATION_TYPE/>
<RESIDUE_MODIFIED/>
<RESIDUE_SITE/>
<PHYSICAL_MODIFICATION>
<ROLE/>
<NUMBER_OF_PARAMETERS/>
<PARAMETER_GROUP>
<PARAMETER/>
<AMOUNT_TYPE/>
<AMOUNT>
<AVERAGE/>
<LOW_LIMIT/>
<HIGH_LIMIT/>
<UNIT/>
<NON_NUMERIC_VALUE/>
</AMOUNT>
</PARAMETER_GROUP>
</PHYSICAL_MODIFICATION>
<STRUCTURAL_MODIFICATION>
<STRUCTURAL_MODIFICATION_TYPE/>
<MOIETY>
<ROLE/>
<MOIETY_ID/>
<MOIETY_NAME/>
<AMOUNT_TYPE/>
<AMOUNT>
<AVERAGE/>
<LOW_LIMIT/>
<HIGH_LIMIT/>
<UNIT/>
<NON_NUMERIC_VALUE/>
</AMOUNT>
</MOIETY>
<MOLECULAR_FRAGMENT>
<ROLE/>
<MOLECULAR_FRAGMENT_ID/>
<MOLECULAR_FRAGMENT_NAME/>
<AMOUNT_TYPE/>
<AMOUNT>
<AVERAGE/>
<LOW_LIMIT/>
<HIGH_LIMIT/>
<UNIT/>
<NON_NUMERIC_VALUE/>
</AMOUNT>
</MOLECULAR_FRAGMENT>
</STRUCTURAL_MODIFICATION>
<AGENT_MODIFICATION>
<AGENT_MODIFICATION_TYPE>CHEMICAL</AGENT_MODIFICATION_TYPE>
<ROLE>DEPOLYMERIZATION</ROLE>
<MODIFICATION_AGENT_ID/>
<MODIFICATION_AGENT/>
<MODIFICATION_PROCESS/>
<AMOUNT_TYPE/>
<AMOUNT>
<AVERAGE/>
<LOW_LIMIT/>
<HIGH_LIMIT/>
<UNIT/>
<NON_NUMERIC_VALUE/>
</AMOUNT>
</AGENT_MODIFICATION>
<AGENT_MODIFICATION>
<AGENT_MODIFICATION_TYPE>CHEMICAL</AGENT_MODIFICATION_TYPE>
<ROLE>ACTIVATION FOR REDUCTIVE AMINATION</ROLE>
<MODIFICATION_AGENT_ID/>
<MODIFICATION_AGENT/>
<MODIFICATION_PROCESS/>
<AMOUNT_TYPE/>
<AMOUNT>
<AVERAGE/>
<LOW_LIMIT/>
<HIGH_LIMIT/>
<UNIT/>
<NON_NUMERIC_VALUE/>
</AMOUNT>
</AGENT_MODIFICATION>
<AGENT_MODIFICATION>
<AGENT_MODIFICATION_TYPE>CHEMICAL</AGENT_MODIFICATION_TYPE>
<ROLE>CONJUGATION</ROLE>
<MODIFICATION_AGENT_ID>08VC9WC084</MODIFICATION_AGENT_ID>
<MODIFICATION_AGENT>CORYNEBACTERIUM DIPHTHERIAE CRM197 PROTEIN</MODIFICATION_AGENT>
<MODIFICATION_PROCESS/>
<AMOUNT_TYPE/>
<AMOUNT>
<AVERAGE/>
<LOW_LIMIT/>
<HIGH_LIMIT/>
<UNIT/>
<NON_NUMERIC_VALUE/>
</AMOUNT>
</AGENT_MODIFICATION>
</MODIFICATION_GROUP>
<PROPERTY_GROUP>
<PROPERTY_TYPE/>
<PROPERTY_NAME/>
<SUBSTANCE_ID/>
<SUBSTANCE_NAME/>
<AMOUNT_TYPE/>
<AMOUNT>
<AVERAGE/>
<LOW_LIMIT/>
<HIGH_LIMIT/>
<UNIT/>
<NON_NUMERIC_VALUE/>
</AMOUNT>
</PROPERTY_GROUP>
<COMMENT/>
</STRUCTURALLY_DIVERSE>

$$$$
> <SUBSTANCE_ID>
25488

> <UNII>
2J57K2523T

> <DESC_PART1>
<STRUCTURALLY_DIVERSE>
<SOURCE_MATERIAL>
<SOURCE_MATERIAL_CLASS>ORGANISM</SOURCE_MATERIAL_CLASS>
<SOURCE_MATERIAL_TYPE>BACTERIUM</SOURCE_MATERIAL_TYPE>
<SOURCE_MATERIAL_STATE/>
<PARENT_SUBSTANCE_ID>L3D72I3050</PARENT_SUBSTANCE_ID>
<PARENT_SUBSTANCE_NAME>NEISSERIA MENINGITIDIS SEROGROUP C</PARENT_SUBSTANCE_NAME>
<DEVELOPMENTAL_STAGE/>
<PART_GROUP>
<PART>BACTERIAL CAPSULE</PART>
<PART_LOCATION/>
</PART_GROUP>
<FRACTION>
<MATERIAL_TYPE/>
<FRACTION>POLYSACCHARIDE ANTIGEN</FRACTION>
</FRACTION>
<ORGANISM>
<KINGDOM/>
<PHYLUM/>
<CLASS/>
<ORDER/>
<FAMILY/>
<GENUS/>
<SPECIES/>
<HYBRID_SPECIES_MATERNAL_ORGANISM_ID/>
<HYBRID_SPECIES_PATERNAL_ORGANISM_ID/>
<HYBRID_TYPE/>
<INFRASPECIFIC_TYPE/>
<INFRASPECIFIC_DESCRIPTION/>
</ORGANISM>
</SOURCE_MATERIAL>
<MODIFICATION_GROUP>
<MODIFICATION_TYPE/>
<RESIDUE_MODIFIED/>
<RESIDUE_SITE/>
<PHYSICAL_MODIFICATION>
<ROLE/>
<NUMBER_OF_PARAMETERS/>
<PARAMETER_GROUP>
<PARAMETER/>
<AMOUNT_TYPE/>
<AMOUNT>
<AVERAGE/>
<LOW_LIMIT/>
<HIGH_LIMIT/>
<UNIT/>
<NON_NUMERIC_VALUE/>
</AMOUNT>
</PARAMETER_GROUP>
</PHYSICAL_MODIFICATION>
<STRUCTURAL_MODIFICATION>
<STRUCTURAL_MODIFICATION_TYPE/>
<MOIETY>
<ROLE/>
<MOIETY_ID/>
<MOIETY_NAME/>
<AMOUNT_TYPE/>
<AMOUNT>
<AVERAGE/>
<LOW_LIMIT/>
<HIGH_LIMIT/>
<UNIT/>
<NON_NUMERIC_VALUE/>
</AMOUNT>
</MOIETY>
<MOLECULAR_FRAGMENT>
<ROLE/>
<MOLECULAR_FRAGMENT_ID/>
<MOLECULAR_FRAGMENT_NAME/>
<AMOUNT_TYPE/>
<AMOUNT>
<AVERAGE/>
<LOW_LIMIT/>
<HIGH_LIMIT/>
<UNIT/>
<NON_NUMERIC_VALUE/>
</AMOUNT>
</MOLECULAR_FRAGMENT>
</STRUCTURAL_MODIFICATION>
<AGENT_MODIFICATION>
<AGENT_MODIFICATION_TYPE>CHEMICAL</AGENT_MODIFICATION_TYPE>
<ROLE>DEPOLYMERIZATION</ROLE>
<MODIFICATION_AGENT_ID/>
<MODIFICATION_AGENT/>
<MODIFICATION_PROCESS/>
<AMOUNT_TYPE/>
<AMOUNT>
<AVERAGE/>
<LOW_LIMIT/>
<HIGH_LIMIT/>
<UNIT/>
<NON_NUMERIC_VALUE/>
</AMOUNT>
</AGENT_MODIFICATION>
<AGENT_MODIFICATION>
<AGENT_MODIFICATION_TYPE>CHEMICAL</AGENT_MODIFICATION_TYPE>
<ROLE>ACTIVATION FOR REDUCTIVE AMINATION</ROLE>
<MODIFICATION_AGENT_ID/>
<MODIFICATION_AGENT/>
<MODIFICATION_PROCESS/>
<AMOUNT_TYPE/>
<AMOUNT>
<AVERAGE/>
<LOW_LIMIT/>
<HIGH_LIMIT/>
<UNIT/>
<NON_NUMERIC_VALUE/>
</AMOUNT>
</AGENT_MODIFICATION>
<AGENT_MODIFICATION>
<AGENT_MODIFICATION_TYPE>CHEMICAL</AGENT_MODIFICATION_TYPE>
<ROLE>CONJUGATION</ROLE>
<MODIFICATION_AGENT_ID>IRH51QN26H</MODIFICATION_AGENT_ID>
<MODIFICATION_AGENT>CORYNEBACTERIUM DIPHTHERIAE TOXOID ANTIGEN (FORMALDEHYDE INACTIVATED)</MODIFICATION_AGENT>
<MODIFICATION_PROCESS/>
<AMOUNT_TYPE/>
<AMOUNT>
<AVERAGE/>
<LOW_LIMIT/>
<HIGH_LIMIT/>
<UNIT/>
<NON_NUMERIC_VALUE/>
</AMOUNT>
</AGENT_MODIFICATION>
</MODIFICATION_GROUP>
<PROPERTY_GROUP>
<PROPERTY_TYPE/>
<PROPERTY_NAME/>
<SUBSTANCE_ID/>
<SUBSTANCE_NAME/>
<AMOUNT_TYPE/>
<AMOUNT>
<AVERAGE/>
<LOW_LIMIT/>
<HIGH_LIMIT/>
<UNIT/>
<NON_NUMERIC_VALUE/>
</AMOUNT>
</PROPERTY_GROUP>
<COMMENT/>
</STRUCTURALLY_DIVERSE>

$$$$
> <SUBSTANCE_ID>
25486

> <UNII>
RE9A0H8OAB

> <DESC_PART1>
<STRUCTURALLY_DIVERSE>
<SOURCE_MATERIAL>
<SOURCE_MATERIAL_CLASS>ORGANISM</SOURCE_MATERIAL_CLASS>
<SOURCE_MATERIAL_TYPE>BACTERIUM</SOURCE_MATERIAL_TYPE>
<SOURCE_MATERIAL_STATE/>
<PARENT_SUBSTANCE_ID>1N776P715A</PARENT_SUBSTANCE_ID>
<PARENT_SUBSTANCE_NAME>NEISSERIA MENINGITIDIS SEROGROUP A</PARENT_SUBSTANCE_NAME>
<DEVELOPMENTAL_STAGE/>
<PART_GROUP>
<PART>BACTERIAL CAPSULE</PART>
<PART_LOCATION/>
</PART_GROUP>
<FRACTION>
<MATERIAL_TYPE/>
<FRACTION>POLYSACCHARIDE ANTIGEN</FRACTION>
</FRACTION>
<ORGANISM>
<KINGDOM/>
<PHYLUM/>
<CLASS/>
<ORDER/>
<FAMILY/>
<GENUS/>
<SPECIES/>
<HYBRID_SPECIES_MATERNAL_ORGANISM_ID/>
<HYBRID_SPECIES_PATERNAL_ORGANISM_ID/>
<HYBRID_TYPE/>
<INFRASPECIFIC_TYPE/>
<INFRASPECIFIC_DESCRIPTION/>
</ORGANISM>
</SOURCE_MATERIAL>
<MODIFICATION_GROUP>
<MODIFICATION_TYPE/>
<RESIDUE_MODIFIED/>
<RESIDUE_SITE/>
<PHYSICAL_MODIFICATION>
<ROLE/>
<NUMBER_OF_PARAMETERS/>
<PARAMETER_GROUP>
<PARAMETER/>
<AMOUNT_TYPE/>
<AMOUNT>
<AVERAGE/>
<LOW_LIMIT/>
<HIGH_LIMIT/>
<UNIT/>
<NON_NUMERIC_VALUE/>
</AMOUNT>
</PARAMETER_GROUP>
</PHYSICAL_MODIFICATION>
<STRUCTURAL_MODIFICATION>
<STRUCTURAL_MODIFICATION_TYPE/>
<MOIETY>
<ROLE/>
<MOIETY_ID/>
<MOIETY_NAME/>
<AMOUNT_TYPE/>
<AMOUNT>
<AVERAGE/>
<LOW_LIMIT/>
<HIGH_LIMIT/>
<UNIT/>
<NON_NUMERIC_VALUE/>
</AMOUNT>
</MOIETY>
<MOLECULAR_FRAGMENT>
<ROLE/>
<MOLECULAR_FRAGMENT_ID/>
<MOLECULAR_FRAGMENT_NAME/>
<AMOUNT_TYPE/>
<AMOUNT>
<AVERAGE/>
<LOW_LIMIT/>
<HIGH_LIMIT/>
<UNIT/>
<NON_NUMERIC_VALUE/>
</AMOUNT>
</MOLECULAR_FRAGMENT>
</STRUCTURAL_MODIFICATION>
<AGENT_MODIFICATION>
<AGENT_MODIFICATION_TYPE>CHEMICAL</AGENT_MODIFICATION_TYPE>
<ROLE>DEPOLYMERIZATION</ROLE>
<MODIFICATION_AGENT_ID/>
<MODIFICATION_AGENT/>
<MODIFICATION_PROCESS/>
<AMOUNT_TYPE/>
<AMOUNT>
<AVERAGE/>
<LOW_LIMIT/>
<HIGH_LIMIT/>
<UNIT/>
<NON_NUMERIC_VALUE/>
</AMOUNT>
</AGENT_MODIFICATION>
<AGENT_MODIFICATION>
<AGENT_MODIFICATION_TYPE>CHEMICAL</AGENT_MODIFICATION_TYPE>
<ROLE>ACTIVATION FOR REDUCTIVE AMINATION</ROLE>
<MODIFICATION_AGENT_ID/>
<MODIFICATION_AGENT/>
<MODIFICATION_PROCESS/>
<AMOUNT_TYPE/>
<AMOUNT>
<AVERAGE/>
<LOW_LIMIT/>
<HIGH_LIMIT/>
<UNIT/>
<NON_NUMERIC_VALUE/>
</AMOUNT>
</AGENT_MODIFICATION>
<AGENT_MODIFICATION>
<AGENT_MODIFICATION_TYPE>CHEMICAL</AGENT_MODIFICATION_TYPE>
<ROLE>CONJUGATION</ROLE>
<MODIFICATION_AGENT_ID>IRH51QN26H</MODIFICATION_AGENT_ID>
<MODIFICATION_AGENT>CORYNEBACTERIUM DIPHTHERIAE TOXOID ANTIGEN (FORMALDEHYDE INACTIVATED)</MODIFICATION_AGENT>
<MODIFICATION_PROCESS/>
<AMOUNT_TYPE/>
<AMOUNT>
<AVERAGE/>
<LOW_LIMIT/>
<HIGH_LIMIT/>
<UNIT/>
<NON_NUMERIC_VALUE/>
</AMOUNT>
</AGENT_MODIFICATION>
</MODIFICATION_GROUP>
<PROPERTY_GROUP>
<PROPERTY_TYPE/>
<PROPERTY_NAME/>
<SUBSTANCE_ID/>
<SUBSTANCE_NAME/>
<AMOUNT_TYPE/>
<AMOUNT>
<AVERAGE/>
<LOW_LIMIT/>
<HIGH_LIMIT/>
<UNIT/>
<NON_NUMERIC_VALUE/>
</AMOUNT>
</PROPERTY_GROUP>
<COMMENT/>
</STRUCTURALLY_DIVERSE>

$$$$
> <SUBSTANCE_ID>
34218

> <UNII>
2W566Z2PEJ

> <DESC_PART1>
<STRUCTURALLY_DIVERSE>
<SOURCE_MATERIAL>
<SOURCE_MATERIAL_CLASS>ORGANISM</SOURCE_MATERIAL_CLASS>
<SOURCE_MATERIAL_TYPE>BACTERIUM</SOURCE_MATERIAL_TYPE>
<SOURCE_MATERIAL_STATE/>
<PARENT_SUBSTANCE_ID>QWV27S4V3K</PARENT_SUBSTANCE_ID>
<PARENT_SUBSTANCE_NAME>NEISSERIA MENINGITIDIS SEROGROUP Y</PARENT_SUBSTANCE_NAME>
<DEVELOPMENTAL_STAGE/>
<PART_GROUP>
<PART>BACTERIAL CAPSULE</PART>
<PART_LOCATION/>
</PART_GROUP>
<FRACTION>
<MATERIAL_TYPE/>
<FRACTION>POLYSACCHARIDE ANTIGEN</FRACTION>
</FRACTION>
<ORGANISM>
<KINGDOM/>
<PHYLUM/>
<CLASS/>
<ORDER/>
<FAMILY/>
<GENUS/>
<SPECIES/>
<HYBRID_SPECIES_MATERNAL_ORGANISM_ID/>
<HYBRID_SPECIES_PATERNAL_ORGANISM_ID/>
<HYBRID_TYPE/>
<INFRASPECIFIC_TYPE/>
<INFRASPECIFIC_DESCRIPTION/>
</ORGANISM>
</SOURCE_MATERIAL>
<MODIFICATION_GROUP>
<MODIFICATION_TYPE>CHEMICAL</MODIFICATION_TYPE>
<RESIDUE_MODIFIED/>
<RESIDUE_SITE/>
<PHYSICAL_MODIFICATION>
<ROLE/>
<NUMBER_OF_PARAMETERS/>
<PARAMETER_GROUP>
<PARAMETER/>
<AMOUNT_TYPE/>
<AMOUNT>
<AVERAGE/>
<LOW_LIMIT/>
<HIGH_LIMIT/>
<UNIT/>
<NON_NUMERIC_VALUE/>
</AMOUNT>
</PARAMETER_GROUP>
</PHYSICAL_MODIFICATION>
<STRUCTURAL_MODIFICATION>
<STRUCTURAL_MODIFICATION_TYPE/>
<MOIETY>
<ROLE/>
<MOIETY_ID/>
<MOIETY_NAME/>
<AMOUNT_TYPE/>
<AMOUNT>
<AVERAGE/>
<LOW_LIMIT/>
<HIGH_LIMIT/>
<UNIT/>
<NON_NUMERIC_VALUE/>
</AMOUNT>
</MOIETY>
<MOLECULAR_FRAGMENT>
<ROLE/>
<MOLECULAR_FRAGMENT_ID/>
<MOLECULAR_FRAGMENT_NAME/>
<AMOUNT_TYPE/>
<AMOUNT>
<AVERAGE/>
<LOW_LIMIT/>
<HIGH_LIMIT/>
<UNIT/>
<NON_NUMERIC_VALUE/>
</AMOUNT>
</MOLECULAR_FRAGMENT>
</STRUCTURAL_MODIFICATION>
<AGENT_MODIFICATION>
<AGENT_MODIFICATION_TYPE>CHEMICAL</AGENT_MODIFICATION_TYPE>
<ROLE>DEPOLYMERIZATION</ROLE>
<MODIFICATION_AGENT_ID/>
<MODIFICATION_AGENT/>
<MODIFICATION_PROCESS/>
<AMOUNT_TYPE/>
<AMOUNT>
<AVERAGE/>
<LOW_LIMIT/>
<HIGH_LIMIT/>
<UNIT/>
<NON_NUMERIC_VALUE/>
</AMOUNT>
</AGENT_MODIFICATION>
<AGENT_MODIFICATION>
<AGENT_MODIFICATION_TYPE>CHEMICAL</AGENT_MODIFICATION_TYPE>
<ROLE/>
<MODIFICATION_AGENT_ID/>
<MODIFICATION_AGENT/>
<MODIFICATION_PROCESS>ACTIVATION FOR REDUCTIVE AMINATION</MODIFICATION_PROCESS>
<AMOUNT_TYPE/>
<AMOUNT>
<AVERAGE/>
<LOW_LIMIT/>
<HIGH_LIMIT/>
<UNIT/>
<NON_NUMERIC_VALUE/>
</AMOUNT>
</AGENT_MODIFICATION>
<AGENT_MODIFICATION>
<AGENT_MODIFICATION_TYPE>CHEMICAL</AGENT_MODIFICATION_TYPE>
<ROLE>CONJUGATION</ROLE>
<MODIFICATION_AGENT_ID>08VC9WC084</MODIFICATION_AGENT_ID>
<MODIFICATION_AGENT>CORYNEBACTERIUM DIPHTHERIAE CRM197 PROTEIN</MODIFICATION_AGENT>
<MODIFICATION_PROCESS/>
<AMOUNT_TYPE/>
<AMOUNT>
<AVERAGE/>
<LOW_LIMIT/>
<HIGH_LIMIT/>
<UNIT/>
<NON_NUMERIC_VALUE/>
</AMOUNT>
</AGENT_MODIFICATION>
</MODIFICATION_GROUP>
<PROPERTY_GROUP>
<PROPERTY_TYPE/>
<PROPERTY_NAME/>
<SUBSTANCE_ID/>
<SUBSTANCE_NAME/>
<AMOUNT_TYPE/>
<AMOUNT>
<AVERAGE/>
<LOW_LIMIT/>
<HIGH_LIMIT/>
<UNIT/>
<NON_NUMERIC_VALUE/>
</AMOUNT>
</PROPERTY_GROUP>
<COMMENT/>
</STRUCTURALLY_DIVERSE>

$$$$
> <SUBSTANCE_ID>
34216

> <UNII>
H2W22AGF1P

> <DESC_PART1>
<STRUCTURALLY_DIVERSE>
<SOURCE_MATERIAL>
<SOURCE_MATERIAL_CLASS>ORGANISM</SOURCE_MATERIAL_CLASS>
<SOURCE_MATERIAL_TYPE>BACTERIUM</SOURCE_MATERIAL_TYPE>
<SOURCE_MATERIAL_STATE/>
<PARENT_SUBSTANCE_ID>L3D72I3050</PARENT_SUBSTANCE_ID>
<PARENT_SUBSTANCE_NAME>NEISSERIA MENINGITIDIS SEROGROUP C</PARENT_SUBSTANCE_NAME>
<DEVELOPMENTAL_STAGE/>
<PART_GROUP>
<PART>BACTERIAL CAPSULE</PART>
<PART_LOCATION/>
</PART_GROUP>
<FRACTION>
<MATERIAL_TYPE/>
<FRACTION>POLYSACCHARIDE ANTIGEN</FRACTION>
</FRACTION>
<ORGANISM>
<KINGDOM/>
<PHYLUM/>
<CLASS/>
<ORDER/>
<FAMILY/>
<GENUS/>
<SPECIES/>
<HYBRID_SPECIES_MATERNAL_ORGANISM_ID/>
<HYBRID_SPECIES_PATERNAL_ORGANISM_ID/>
<HYBRID_TYPE/>
<INFRASPECIFIC_TYPE/>
<INFRASPECIFIC_DESCRIPTION/>
</ORGANISM>
</SOURCE_MATERIAL>
<MODIFICATION_GROUP>
<MODIFICATION_TYPE/>
<RESIDUE_MODIFIED/>
<RESIDUE_SITE/>
<PHYSICAL_MODIFICATION>
<ROLE/>
<NUMBER_OF_PARAMETERS/>
<PARAMETER_GROUP>
<PARAMETER/>
<AMOUNT_TYPE/>
<AMOUNT>
<AVERAGE/>
<LOW_LIMIT/>
<HIGH_LIMIT/>
<UNIT/>
<NON_NUMERIC_VALUE/>
</AMOUNT>
</PARAMETER_GROUP>
</PHYSICAL_MODIFICATION>
<STRUCTURAL_MODIFICATION>
<STRUCTURAL_MODIFICATION_TYPE/>
<MOIETY>
<ROLE/>
<MOIETY_ID/>
<MOIETY_NAME/>
<AMOUNT_TYPE/>
<AMOUNT>
<AVERAGE/>
<LOW_LIMIT/>
<HIGH_LIMIT/>
<UNIT/>
<NON_NUMERIC_VALUE/>
</AMOUNT>
</MOIETY>
<MOLECULAR_FRAGMENT>
<ROLE/>
<MOLECULAR_FRAGMENT_ID/>
<MOLECULAR_FRAGMENT_NAME/>
<AMOUNT_TYPE/>
<AMOUNT>
<AVERAGE/>
<LOW_LIMIT/>
<HIGH_LIMIT/>
<UNIT/>
<NON_NUMERIC_VALUE/>
</AMOUNT>
</MOLECULAR_FRAGMENT>
</STRUCTURAL_MODIFICATION>
<AGENT_MODIFICATION>
<AGENT_MODIFICATION_TYPE>CHEMICAL</AGENT_MODIFICATION_TYPE>
<ROLE>DEPOLYMERIZATION</ROLE>
<MODIFICATION_AGENT_ID/>
<MODIFICATION_AGENT/>
<MODIFICATION_PROCESS/>
<AMOUNT_TYPE/>
<AMOUNT>
<AVERAGE/>
<LOW_LIMIT/>
<HIGH_LIMIT/>
<UNIT/>
<NON_NUMERIC_VALUE/>
</AMOUNT>
</AGENT_MODIFICATION>
<AGENT_MODIFICATION>
<AGENT_MODIFICATION_TYPE>CHEMICAL</AGENT_MODIFICATION_TYPE>
<ROLE>ACTIVATION FOR REDUCTIVE AMINATION</ROLE>
<MODIFICATION_AGENT_ID/>
<MODIFICATION_AGENT/>
<MODIFICATION_PROCESS/>
<AMOUNT_TYPE/>
<AMOUNT>
<AVERAGE/>
<LOW_LIMIT/>
<HIGH_LIMIT/>
<UNIT/>
<NON_NUMERIC_VALUE/>
</AMOUNT>
</AGENT_MODIFICATION>
<AGENT_MODIFICATION>
<AGENT_MODIFICATION_TYPE>CHEMICAL</AGENT_MODIFICATION_TYPE>
<ROLE>CONJUGATION</ROLE>
<MODIFICATION_AGENT_ID>08VC9WC084</MODIFICATION_AGENT_ID>
<MODIFICATION_AGENT>CORYNEBACTERIUM DIPHTHERIAE CRM197 PROTEIN</MODIFICATION_AGENT>
<MODIFICATION_PROCESS/>
<AMOUNT_TYPE/>
<AMOUNT>
<AVERAGE/>
<LOW_LIMIT/>
<HIGH_LIMIT/>
<UNIT/>
<NON_NUMERIC_VALUE/>
</AMOUNT>
</AGENT_MODIFICATION>
</MODIFICATION_GROUP>
<PROPERTY_GROUP>
<PROPERTY_TYPE/>
<PROPERTY_NAME/>
<SUBSTANCE_ID/>
<SUBSTANCE_NAME/>
<AMOUNT_TYPE/>
<AMOUNT>
<AVERAGE/>
<LOW_LIMIT/>
<HIGH_LIMIT/>
<UNIT/>
<NON_NUMERIC_VALUE/>
</AMOUNT>
</PROPERTY_GROUP>
<COMMENT/>
</STRUCTURALLY_DIVERSE>

$$$$
> <SUBSTANCE_ID>
25490

> <UNII>
MI340WV90B

> <DESC_PART1>
<STRUCTURALLY_DIVERSE>
<SOURCE_MATERIAL>
<SOURCE_MATERIAL_CLASS>ORGANISM</SOURCE_MATERIAL_CLASS>
<SOURCE_MATERIAL_TYPE>BACTERIUM</SOURCE_MATERIAL_TYPE>
<SOURCE_MATERIAL_STATE/>
<PARENT_SUBSTANCE_ID>QWV27S4V3K</PARENT_SUBSTANCE_ID>
<PARENT_SUBSTANCE_NAME>NEISSERIA MENINGITIDIS SEROGROUP Y</PARENT_SUBSTANCE_NAME>
<DEVELOPMENTAL_STAGE/>
<PART_GROUP>
<PART>BACTERIAL CAPSULE</PART>
<PART_LOCATION/>
</PART_GROUP>
<FRACTION>
<MATERIAL_TYPE/>
<FRACTION>POLYSACCHARIDE ANTIGEN</FRACTION>
</FRACTION>
<ORGANISM>
<KINGDOM/>
<PHYLUM/>
<CLASS/>
<ORDER/>
<FAMILY/>
<GENUS/>
<SPECIES/>
<HYBRID_SPECIES_MATERNAL_ORGANISM_ID/>
<HYBRID_SPECIES_PATERNAL_ORGANISM_ID/>
<HYBRID_TYPE/>
<INFRASPECIFIC_TYPE/>
<INFRASPECIFIC_DESCRIPTION/>
</ORGANISM>
</SOURCE_MATERIAL>
<MODIFICATION_GROUP>
<MODIFICATION_TYPE>CHEMICAL</MODIFICATION_TYPE>
<RESIDUE_MODIFIED/>
<RESIDUE_SITE/>
<PHYSICAL_MODIFICATION>
<ROLE/>
<NUMBER_OF_PARAMETERS/>
<PARAMETER_GROUP>
<PARAMETER/>
<AMOUNT_TYPE/>
<AMOUNT>
<AVERAGE/>
<LOW_LIMIT/>
<HIGH_LIMIT/>
<UNIT/>
<NON_NUMERIC_VALUE/>
</AMOUNT>
</PARAMETER_GROUP>
</PHYSICAL_MODIFICATION>
<STRUCTURAL_MODIFICATION>
<STRUCTURAL_MODIFICATION_TYPE/>
<MOIETY>
<ROLE/>
<MOIETY_ID/>
<MOIETY_NAME/>
<AMOUNT_TYPE/>
<AMOUNT>
<AVERAGE/>
<LOW_LIMIT/>
<HIGH_LIMIT/>
<UNIT/>
<NON_NUMERIC_VALUE/>
</AMOUNT>
</MOIETY>
<MOLECULAR_FRAGMENT>
<ROLE/>
<MOLECULAR_FRAGMENT_ID/>
<MOLECULAR_FRAGMENT_NAME/>
<AMOUNT_TYPE/>
<AMOUNT>
<AVERAGE/>
<LOW_LIMIT/>
<HIGH_LIMIT/>
<UNIT/>
<NON_NUMERIC_VALUE/>
</AMOUNT>
</MOLECULAR_FRAGMENT>
</STRUCTURAL_MODIFICATION>
<AGENT_MODIFICATION>
<AGENT_MODIFICATION_TYPE>CHEMICAL</AGENT_MODIFICATION_TYPE>
<ROLE>DEPOLYMERIZATION</ROLE>
<MODIFICATION_AGENT_ID/>
<MODIFICATION_AGENT/>
<MODIFICATION_PROCESS/>
<AMOUNT_TYPE/>
<AMOUNT>
<AVERAGE/>
<LOW_LIMIT/>
<HIGH_LIMIT/>
<UNIT/>
<NON_NUMERIC_VALUE/>
</AMOUNT>
</AGENT_MODIFICATION>
<AGENT_MODIFICATION>
<AGENT_MODIFICATION_TYPE>CHEMICAL</AGENT_MODIFICATION_TYPE>
<ROLE/>
<MODIFICATION_AGENT_ID/>
<MODIFICATION_AGENT/>
<MODIFICATION_PROCESS>ACTIVATION FOR REDUCTIVE AMINATION</MODIFICATION_PROCESS>
<AMOUNT_TYPE/>
<AMOUNT>
<AVERAGE/>
<LOW_LIMIT/>
<HIGH_LIMIT/>
<UNIT/>
<NON_NUMERIC_VALUE/>
</AMOUNT>
</AGENT_MODIFICATION>
<AGENT_MODIFICATION>
<AGENT_MODIFICATION_TYPE>CHEMICAL</AGENT_MODIFICATION_TYPE>
<ROLE>CONJUGATION</ROLE>
<MODIFICATION_AGENT_ID>IRH51QN26H</MODIFICATION_AGENT_ID>
<MODIFICATION_AGENT>CORYNEBACTERIUM DIPHTHERIAE TOXOID ANTIGEN (FORMALDEHYDE INACTIVATED)</MODIFICATION_AGENT>
<MODIFICATION_PROCESS/>
<AMOUNT_TYPE/>
<AMOUNT>
<AVERAGE/>
<LOW_LIMIT/>
<HIGH_LIMIT/>
<UNIT/>
<NON_NUMERIC_VALUE/>
</AMOUNT>
</AGENT_MODIFICATION>
</MODIFICATION_GROUP>
<PROPERTY_GROUP>
<PROPERTY_TYPE/>
<PROPERTY_NAME/>
<SUBSTANCE_ID/>
<SUBSTANCE_NAME/>
<AMOUNT_TYPE/>
<AMOUNT>
<AVERAGE/>
<LOW_LIMIT/>
<HIGH_LIMIT/>
<UNIT/>
<NON_NUMERIC_VALUE/>
</AMOUNT>
</PROPERTY_GROUP>
<COMMENT/>
</STRUCTURALLY_DIVERSE>

$$$$
> <SUBSTANCE_ID>
25492

> <UNII>
Z6R9D1D3KJ

> <DESC_PART1>
<STRUCTURALLY_DIVERSE>
<SOURCE_MATERIAL>
<SOURCE_MATERIAL_CLASS>ORGANISM</SOURCE_MATERIAL_CLASS>
<SOURCE_MATERIAL_TYPE>BACTERIUM</SOURCE_MATERIAL_TYPE>
<SOURCE_MATERIAL_STATE/>
<PARENT_SUBSTANCE_ID>1AF1QK263C</PARENT_SUBSTANCE_ID>
<PARENT_SUBSTANCE_NAME>NEISSERIA MENINGITIDIS SEROGROUP W-135</PARENT_SUBSTANCE_NAME>
<DEVELOPMENTAL_STAGE/>
<PART_GROUP>
<PART>BACTERIAL CAPSULE</PART>
<PART_LOCATION/>
</PART_GROUP>
<FRACTION>
<MATERIAL_TYPE/>
<FRACTION>POLYSACCHARIDE ANTIGEN</FRACTION>
</FRACTION>
<ORGANISM>
<KINGDOM/>
<PHYLUM/>
<CLASS/>
<ORDER/>
<FAMILY/>
<GENUS/>
<SPECIES/>
<HYBRID_SPECIES_MATERNAL_ORGANISM_ID/>
<HYBRID_SPECIES_PATERNAL_ORGANISM_ID/>
<HYBRID_TYPE/>
<INFRASPECIFIC_TYPE/>
<INFRASPECIFIC_DESCRIPTION/>
</ORGANISM>
</SOURCE_MATERIAL>
<MODIFICATION_GROUP>
<MODIFICATION_TYPE/>
<RESIDUE_MODIFIED/>
<RESIDUE_SITE/>
<PHYSICAL_MODIFICATION>
<ROLE/>
<NUMBER_OF_PARAMETERS/>
<PARAMETER_GROUP>
<PARAMETER/>
<AMOUNT_TYPE/>
<AMOUNT>
<AVERAGE/>
<LOW_LIMIT/>
<HIGH_LIMIT/>
<UNIT/>
<NON_NUMERIC_VALUE/>
</AMOUNT>
</PARAMETER_GROUP>
</PHYSICAL_MODIFICATION>
<STRUCTURAL_MODIFICATION>
<STRUCTURAL_MODIFICATION_TYPE/>
<MOIETY>
<ROLE/>
<MOIETY_ID/>
<MOIETY_NAME/>
<AMOUNT_TYPE/>
<AMOUNT>
<AVERAGE/>
<LOW_LIMIT/>
<HIGH_LIMIT/>
<UNIT/>
<NON_NUMERIC_VALUE/>
</AMOUNT>
</MOIETY>
<MOLECULAR_FRAGMENT>
<ROLE/>
<MOLECULAR_FRAGMENT_ID/>
<MOLECULAR_FRAGMENT_NAME/>
<AMOUNT_TYPE/>
<AMOUNT>
<AVERAGE/>
<LOW_LIMIT/>
<HIGH_LIMIT/>
<UNIT/>
<NON_NUMERIC_VALUE/>
</AMOUNT>
</MOLECULAR_FRAGMENT>
</STRUCTURAL_MODIFICATION>
<AGENT_MODIFICATION>
<AGENT_MODIFICATION_TYPE>CHEMICAL</AGENT_MODIFICATION_TYPE>
<ROLE>DEPOLYMERIZATION</ROLE>
<MODIFICATION_AGENT_ID/>
<MODIFICATION_AGENT/>
<MODIFICATION_PROCESS/>
<AMOUNT_TYPE/>
<AMOUNT>
<AVERAGE/>
<LOW_LIMIT/>
<HIGH_LIMIT/>
<UNIT/>
<NON_NUMERIC_VALUE/>
</AMOUNT>
</AGENT_MODIFICATION>
<AGENT_MODIFICATION>
<AGENT_MODIFICATION_TYPE>CHEMICAL</AGENT_MODIFICATION_TYPE>
<ROLE>ACTIVATION FOR REDUCTIVE AMINATION</ROLE>
<MODIFICATION_AGENT_ID/>
<MODIFICATION_AGENT/>
<MODIFICATION_PROCESS/>
<AMOUNT_TYPE/>
<AMOUNT>
<AVERAGE/>
<LOW_LIMIT/>
<HIGH_LIMIT/>
<UNIT/>
<NON_NUMERIC_VALUE/>
</AMOUNT>
</AGENT_MODIFICATION>
<AGENT_MODIFICATION>
<AGENT_MODIFICATION_TYPE>CHEMICAL</AGENT_MODIFICATION_TYPE>
<ROLE>CONJUGATION</ROLE>
<MODIFICATION_AGENT_ID>IRH51QN26H</MODIFICATION_AGENT_ID>
<MODIFICATION_AGENT>CORYNEBACTERIUM DIPHTHERIAE TOXOID ANTIGEN (FORMALDEHYDE INACTIVATED)</MODIFICATION_AGENT>
<MODIFICATION_PROCESS/>
<AMOUNT_TYPE/>
<AMOUNT>
<AVERAGE/>
<LOW_LIMIT/>
<HIGH_LIMIT/>
<UNIT/>
<NON_NUMERIC_VALUE/>
</AMOUNT>
</AGENT_MODIFICATION>
</MODIFICATION_GROUP>
<PROPERTY_GROUP>
<PROPERTY_TYPE/>
<PROPERTY_NAME/>
<SUBSTANCE_ID/>
<SUBSTANCE_NAME/>
<AMOUNT_TYPE/>
<AMOUNT>
<AVERAGE/>
<LOW_LIMIT/>
<HIGH_LIMIT/>
<UNIT/>
<NON_NUMERIC_VALUE/>
</AMOUNT>
</PROPERTY_GROUP>
<COMMENT/>
</STRUCTURALLY_DIVERSE>

$$$$
