
  Symyx   10091415242D 1   1.00000     0.00000     0

 98101  0     1  0            999 V2000
    3.2167   -5.3458    0.0000 C   0  0  3  0  0  0           0  0  0
    2.6250   -4.3292    0.0000 S   0  0  0  0  0  0           0  0  0
    1.4500   -4.3292    0.0000 *   0  0  0  0  0  0           0  0  0
    4.3459   -6.8893    0.0000 N   0  0  3  0  0  0           0  0  0
    4.3417   -5.7102    0.0000 C   0  0  0  0  0  0           0  0  0
    2.5291   -6.3062    0.0000 C   0  0  0  0  0  0           0  0  0
    3.2257   -7.2576    0.0000 C   0  0  0  0  0  0           0  0  0
   26.4374   -5.2833    0.0000 C   0  0  2  0  0  0           0  0  0
   27.5166   -5.7750    0.0000 C   0  0  0  0  0  0           0  0  0
   28.5917   -5.2833    0.0000 N   0  0  0  0  0  0           0  0  0
   29.6709   -5.7750    0.0000 C   0  0  2  0  0  0           0  0  0
   30.7500   -5.2833    0.0000 C   0  0  0  0  0  0           0  0  0
   31.8291   -5.7792    0.0000 N   0  0  3  0  0  0           0  0  0
   32.9083   -5.2916    0.0000 C   0  0  2  0  0  0           0  0  0
   33.9834   -5.7833    0.0000 C   0  0  1  0  0  0           0  0  0
   35.0666   -5.2916    0.0000 C   0  0  0  0  0  0           0  0  0
   36.1416   -5.7875    0.0000 C   0  0  0  0  0  0           0  0  0
   37.2167   -5.2999    0.0000 N   0  0  3  0  0  0           0  0  0
   46.0735   -5.8166    0.0000 C   0  0  0  0  0  0           0  0  0
   46.0724   -6.8772    0.0000 C   0  0  0  0  0  0           0  0  0
   47.2039   -7.4026    0.0000 C   0  0  0  0  0  0           0  0  0
   48.3536   -6.8768    0.0000 C   0  0  0  0  0  0           0  0  0
   48.3508   -5.8130    0.0000 C   0  0  0  0  0  0           0  0  0
   47.2021   -5.2913    0.0000 C   0  0  0  0  0  0           0  0  0
   44.9917   -5.3167    0.0000 C   0  0  1  0  0  0           0  0  0
   43.9166   -5.8125    0.0000 C   0  0  2  0  0  0           0  0  0
   42.8374   -5.3167    0.0000 N   0  0  0  0  0  0           0  0  0
   41.7583   -5.8125    0.0000 C   0  0  0  0  0  0           0  0  0
   40.6911   -5.3066    0.0000 C   0  0  1  0  0  0           0  0  0
   41.7671   -6.9957    0.0000 O   0  0  0  0  0  0           0  0  0
   44.9918   -4.1375    0.0000 O   0  0  0  0  0  0           0  0  0
   43.9260   -6.9958    0.0000 C   0  0  0  0  0  0           0  0  0
   39.6084   -5.7959    0.0000 C   0  0  2  0  0  0           0  0  0
   38.5375   -5.2999    0.0000 C   0  0  2  0  0  0           0  0  0
   38.9443   -4.2868    0.0000 C   0  0  0  0  0  0           0  0  0
   37.8792   -3.6708    0.0000 C   0  0  0  0  0  0           0  0  0
   36.8183   -4.2868    0.0000 C   0  0  0  0  0  0           0  0  0
   38.5334   -6.4750    0.0000 H   0  0  0  0  0  0           0  0  0
   40.6913   -4.1274    0.0000 C   0  0  0  0  0  0           0  0  0
   39.6083   -6.9750    0.0000 O   0  0  0  0  0  0           0  0  0
   40.6792   -7.4833    0.0000 C   0  0  0  0  0  0           0  0  0
   36.1416   -6.9667    0.0000 O   0  0  0  0  0  0           0  0  0
   33.9834   -6.9625    0.0000 O   0  0  0  0  0  0           0  0  0
   35.0583   -7.4667    0.0000 C   0  0  0  0  0  0           0  0  0
   32.9042   -4.1125    0.0000 C   0  0  2  0  0  0           0  0  0
   33.9750   -3.6124    0.0000 C   0  0  0  0  0  0           0  0  0
   35.0500   -4.1000    0.0000 C   0  0  0  0  0  0           0  0  0
   31.8267   -3.6265    0.0000 C   0  0  0  0  0  0           0  0  0
   31.8291   -6.9583    0.0000 C   0  0  0  0  0  0           0  0  0
   30.7500   -4.1041    0.0000 O   0  0  0  0  0  0           0  0  0
   29.6709   -6.9542    0.0000 C   0  0  3  0  0  0           0  0  0
   28.6038   -7.4562    0.0000 C   0  0  0  0  0  0           0  0  0
   30.7420   -7.4603    0.0000 C   0  0  0  0  0  0           0  0  0
   27.5166   -6.9542    0.0000 O   0  0  0  0  0  0           0  0  0
   26.4333   -4.1041    0.0000 C   0  0  3  0  0  0           0  0  0
   27.5124   -3.6041    0.0000 C   0  0  0  0  0  0           0  0  0
   25.3583   -3.6167    0.0000 C   0  0  0  0  0  0           0  0  0
   25.3542   -5.7708    0.0000 N   0  0  3  0  0  0           0  0  0
   33.9750   -4.7874    0.0000 H   0  0  0  0  0  0           0  0  0
   24.3042   -5.2125    0.0000 C   0  0  0  0  0  0           0  0  0
   23.2625   -5.7708    0.0000 O   0  0  0  0  0  0           0  0  0
   22.2166   -5.2208    0.0000 C   0  0  0  0  0  0           0  0  0
   21.1625   -5.7792    0.0000 C   0  0  0  0  0  0           0  0  0
   25.3206   -6.9472    0.0000 C   0  0  0  0  0  0           0  0  0
   24.3073   -4.0307    0.0000 O   0  0  0  0  0  0           0  0  0
   20.0914   -5.2019    0.0000 C   0  0  0  0  0  0           0  0  0
   19.0212   -5.7718    0.0000 C   0  0  0  0  0  0           0  0  0
   19.0215   -6.9131    0.0000 C   0  0  0  0  0  0           0  0  0
   20.0998   -7.4738    0.0000 C   0  0  0  0  0  0           0  0  0
   21.1661   -6.9132    0.0000 C   0  0  0  0  0  0           0  0  0
   17.9750   -7.4667    0.0000 N   0  0  0  0  0  0           0  0  0
   16.9250   -6.9166    0.0000 C   0  0  0  0  0  0           0  0  0
   15.8750   -7.4667    0.0000 C   0  0  1  0  0  0           0  0  0
   14.8250   -6.9166    0.0000 N   0  0  0  0  0  0           0  0  0
   13.7750   -7.4667    0.0000 C   0  0  0  0  0  0           0  0  0
   12.7250   -6.9166    0.0000 C   0  0  1  0  0  0           0  0  0
   11.6750   -7.4667    0.0000 N   0  0  0  0  0  0           0  0  0
   16.9250   -5.7364    0.0000 O   0  0  0  0  0  0           0  0  0
   15.8750   -8.6500    0.0000 C   0  0  0  0  0  0           0  0  0
   16.9209   -9.2000    0.0000 C   0  0  0  0  0  0           0  0  0
   16.9209  -10.3792    0.0000 C   0  0  0  0  0  0           0  0  0
   17.9667  -10.9375    0.0000 N   0  0  0  0  0  0           0  0  0
   19.0083  -10.3791    0.0000 C   0  0  0  0  0  0           0  0  0
   20.0459  -10.9333    0.0000 N   0  0  0  0  0  0           0  0  0
   19.0065   -9.1963    0.0000 O   0  0  0  0  0  0           0  0  0
   13.7750   -8.6469    0.0000 O   0  0  0  0  0  0           0  0  0
   12.7250   -5.7364    0.0000 C   0  0  3  0  0  0           0  0  0
   11.6794   -5.1775    0.0000 C   0  0  0  0  0  0           0  0  0
   13.7663   -5.1775    0.0000 C   0  0  0  0  0  0           0  0  0
   10.6250   -6.9125    0.0000 C   0  0  0  0  0  0           0  0  0
    9.5750   -7.4625    0.0000 C   0  0  0  0  0  0           0  0  0
    8.5291   -6.9084    0.0000 C   0  0  0  0  0  0           0  0  0
    7.4792   -7.4583    0.0000 C   0  0  0  0  0  0           0  0  0
    6.4334   -6.8958    0.0000 C   0  0  0  0  0  0           0  0  0
    5.3875   -7.4500    0.0000 C   0  0  0  0  0  0           0  0  0
   10.6268   -5.7296    0.0000 O   0  0  0  0  0  0           0  0  0
    5.2932   -5.0137    0.0000 O   0  0  0  0  0  0           0  0  0
    2.8653   -8.3803    0.0000 O   0  0  0  0  0  0           0  0  0
  4  5  1  0     0  0
  1  2  1  0     0  0
  5  1  1  0     0  0
  1  6  1  0     0  0
  6  7  1  0     0  0
 28 30  2  0     0  0
  9 54  2  0     0  0
 25 31  1  1     0  0
  8 55  1  1     0  0
 13 14  1  0     0  0
 55 56  1  0     0  0
 26 32  1  1     0  0
 55 57  1  0     0  0
 10 11  1  0     0  0
  8 58  1  0     0  0
 29 33  1  0     0  0
 14 59  1  6     0  0
 14 15  1  0     0  0
 58 60  1  0     0  0
 60 61  1  0     0  0
 61 62  1  0     0  0
 33 34  1  0     0  0
 62 63  1  0     0  0
 18 34  1  0     0  0
 58 64  1  0     0  0
 15 16  1  0     0  0
 60 65  2  0     0  0
 11 12  1  0     0  0
 63 66  2  0     0  0
 34 35  1  0     0  0
 66 67  1  0     0  0
 35 36  1  0     0  0
 67 68  2  0     0  0
 36 37  1  0     0  0
 68 69  1  0     0  0
 37 18  1  0     0  0
 69 70  2  0     0  0
 70 63  1  0     0  0
 16 17  1  0     0  0
 68 71  1  0     0  0
 34 38  1  6     0  0
 71 72  1  0     0  0
  9 10  1  0     0  0
 72 73  1  0     0  0
 29 39  1  1     0  0
 73 74  1  0     0  0
 17 18  1  0     0  0
 74 75  1  0     0  0
 33 40  1  1     0  0
 75 76  1  0     0  0
 12 13  1  0     0  0
 76 77  1  0     0  0
 40 41  1  0     0  0
 72 78  2  0     0  0
  8  9  1  0     0  0
 73 79  1  6     0  0
 17 42  2  0     0  0
 79 80  1  0     0  0
 24 19  1  0     0  0
 80 81  1  0     0  0
 15 43  1  1     0  0
 81 82  1  0     0  0
 19 20  2  0     0  0
 82 83  1  0     0  0
 43 44  1  0     0  0
 83 84  1  0     0  0
 19 25  1  0     0  0
 83 85  2  0     0  0
 14 45  1  0     0  0
 75 86  2  0     0  0
 21 22  2  0     0  0
 76 87  1  1     0  0
 45 46  1  0     0  0
 87 88  1  0     0  0
 25 26  1  0     0  0
 87 89  1  0     0  0
 46 47  1  0     0  0
 77 90  1  0     0  0
 26 27  1  0     0  0
 90 91  1  0     0  0
 45 48  1  1     0  0
 91 92  1  0     0  0
 22 23  1  0     0  0
 92 93  1  0     0  0
 13 49  1  0     0  0
 93 94  1  0     0  0
 27 28  1  0     0  0
 94 95  1  0     0  0
 12 50  2  0     0  0
 95  4  1  0     0  0
 20 21  1  0     0  0
 90 96  2  0     0  0
 11 51  1  6     0  0
 28 29  1  0     0  0
 51 52  1  0     0  0
 23 24  2  0     0  0
 51 53  1  0     0  0
  7  4  1  0     0  0
  5 97  2  0     0  0
  2  3  1  0     0  0
  7 98  2  0     0  0
M  END
>  <SUBSTANCE_ID>
20978

>  <UNII>
7XL5ISS668

>  <DESC_PART1>
<SUBSTANCE>
 <SUBSTANCE_ID/>
<NAME_GROUP>
 <NAME/>
 <PUBLIC_DOMAIN/>
 <NAME_TYPE/>
 <LANGUAGE_ISOCODE/>
<OFFICIAL_NAME_GROUP>
 <OFFICIAL_NAME_TYPE/>
 <OFFICIAL_NAME_STATUS/>
 <OFFICIAL_NAME_STATUS_CHANGE_DATE>Mon Jun 27 12:48:50 2011</OFFICIAL_NAME_STATUS_CHANGE_DATE>
<OFFICIAL_NAME_JURISDICTION_GROUP>
 <OFFICIAL_NAME_JURISDICTION/>
 </OFFICIAL_NAME_JURISDICTION_GROUP>
 <OFFICIAL_NAME_DOMAIN/>
 </OFFICIAL_NAME_GROUP>
<REFERENCE_SOURCE_GROUP>
 <PUBLIC_DOMAIN/>
 <REFERENCE_SOURCE_TYPE/>
 <REFERENCE_SOURCE_IDENTIFIER/>
 <REFERENCE_SOURCE_CITATION/>
 </REFERENCE_SOURCE_GROUP>
 </NAME_GROUP>
<CODE_GROUP>
 <CODE/>
 <CODE_SYSTEM/>
 <CODE_SYSTEM_ID/>
 <CODE_STATUS/>
 <CODE_STATUS_CHANGE_DATE>Mon Jun 27 12:48:50 2011 </CODE_STATUS_CHANGE_DATE>
<REFERENCE_SOURCE_GROUP>
 <PUBLIC_DOMAIN/>
 <REFERENCE_SOURCE_TYPE/>
 <REFERENCE_SOURCE_IDENTIFIER/>
 <REFERENCE_SOURCE_CITATION/>
 </REFERENCE_SOURCE_GROUP>
 </CODE_GROUP>
<REFERENCE_INFORMATION>
<SUBSTANCE_RELATIONSHIP_GROUP>
 <RELATIONSHIP/>
 <TYPE_OF_INTERACTION/>
 <SUBSTANCE_ID/>
 <SUBSTANCE_NAME/>
 <RELATIONSHIP/>
 <AMOUNT_TYPE/>
<AMOUNT>
 <AVERAGE/>
 <LOW_LIMIT/>
 <HIGH_LIMIT/>
 <UNIT/>
 <NON_NUMERIC_VALUE/>
 </AMOUNT>
<REFERENCE_SOURCE_GROUP>
 <PUBLIC_DOMAIN/>
 <REFERENCE_SOURCE_TYPE/>
 <REFERENCE_SOURCE_IDENTIFIER/>
 <REFERENCE_SOURCE_CITATION/>
 </REFERENCE_SOURCE_GROUP>
 </SUBSTANCE_RELATIONSHIP_GROUP>
<GENE_GROUP>
 <GENE_SEQUENCE_ORIGIN>MOUSE-HUMAN CHIMERIC</GENE_SEQUENCE_ORIGIN>
 <GENE_ID/>
 <GENE_NAME/>
<REFERENCE_SOURCE_GROUP>
 <PUBLIC_DOMAIN/>
 <REFERENCE_SOURCE_TYPE/>
 <REFERENCE_SOURCE_IDENTIFIER/>
 <REFERENCE_SOURCE_CITATION/>
 </REFERENCE_SOURCE_GROUP>
 </GENE_GROUP>
<SUBSTANCE_CLASSIFICATION>
 <DOMAIN/>
 <SUBSTANCE_TYPE>MONOCLONAL ANTIBODY</SUBSTANCE_TYPE>
 <SUBSTANCE_SUBTYPE>IGG1</SUBSTANCE_SUBTYPE>
 <SUBSTANCE_SUBTYPE>TOXIN CONJUGATE</SUBSTANCE_SUBTYPE>
<REFERENCE_SOURCE_GROUP>
 <PUBLIC_DOMAIN/>
 <REFERENCE_SOURCE_TYPE/>
 <REFERENCE_SOURCE_IDENTIFIER/>
 <REFERENCE_SOURCE_CITATION/>
 </REFERENCE_SOURCE_GROUP>
 </SUBSTANCE_CLASSIFICATION>
<TARGET_GROUP>
 <TARGET_ORGANISM>HUMAN</TARGET_ORGANISM>
 <TARGET_TYPE>RECEPTOR</TARGET_TYPE>
 <TARGET_NAME>TNFRSF8 tumor necrosis factor receptor superfamily, member 8 [ Homo sapiens (human) ] </TARGET_NAME>
 <TARGET_ID>943</TARGET_ID>
 <TARGET_ID_SOURCE>GENE</TARGET_ID_SOURCE>
 <INTERACTION_TYPE>TOXIN DELIVER</INTERACTION_TYPE>
<REFERENCE_SOURCE_GROUP>
 <PUBLIC_DOMAIN/>
 <REFERENCE_SOURCE_TYPE/>
 <REFERENCE_SOURCE_IDENTIFIER/>
 <REFERENCE_SOURCE_CITATION/>
 </REFERENCE_SOURCE_GROUP>
 </TARGET_GROUP>
 <COMMENTS/>
 </REFERENCE_INFORMATION>
<SINGLE_SUBSTANCE>
<STRUCTURE>
 <STRUCTURAL_REPRESENTATION_TYPE/>
 <STRUCTURAL_REPRESENTATION/>
 <STEREOCHEMISTRY/>
 <OPTICAL_ACTIVITY/>
 <PUBLIC_DOMAIN/>
<ISOTOPE_GROUP>
 <NUCLIDE_ID/>
 <NUCLIDE_NAME/>
 <SUBSTITUTION_TYPE/>
 </ISOTOPE_GROUP>
 </STRUCTURE>
<ELEMENT_TYPE>
<PROTEIN>
 <SEQUENCE_TYPE>COMPLETE</SEQUENCE_TYPE>
 <NUMBER_OF_SUBUNITS>4</NUMBER_OF_SUBUNITS>
<SUBUNIT_GROUP>
 <SUBUNIT>1</SUBUNIT>
 <LENGTH>446</LENGTH>
 <SEQUENCE>QIQLQQSGPEVVKPGASVKISCKASGYTFTDYYITWVKQKPGQGLEWIGWIYPGSGNTKYNEKFKGKATLTVDTSSSTAFMQLSSLTSEDTAVYFCANYGNYWFAYWGQGTQVTVSAASTKGPSVFPLAPSSKSTSGGTAALGCLVKDYFPEPVTVSWNSGALTSGVHTFPAVLQSSGLYSLSSVVTVPSSSLGTQTYICNVNHKPSNTKVDKKVEPKSCDKTHTCPPCPAPELLGGPSVFLFPPKPKDTLMISRTPEVTCVVVDVSHEDPEVKFNWYVDGVEVHNAKTKPREEQYNSTYRVVSVLTVLHQDWLNGKEYKCKVSNKALPAPIEKTISKAKGQPREPQVYTLPPSRDELTKNQVSLTCLVKGFYPSDIAVEWESNGQPENNYKTTPPVLDSDGSFFLYSKLTVDKSRWQQGNVFSCSVMHEALHNHYTQKSLSLSPG</SEQUENCE>
 </SUBUNIT_GROUP>
<SUBUNIT_GROUP>
 <SUBUNIT>2</SUBUNIT>
 <LENGTH>446</LENGTH>
 <SEQUENCE>QIQLQQSGPEVVKPGASVKISCKASGYTFTDYYITWVKQKPGQGLEWIGWIYPGSGNTKYNEKFKGKATLTVDTSSSTAFMQLSSLTSEDTAVYFCANYGNYWFAYWGQGTQVTVSAASTKGPSVFPLAPSSKSTSGGTAALGCLVKDYFPEPVTVSWNSGALTSGVHTFPAVLQSSGLYSLSSVVTVPSSSLGTQTYICNVNHKPSNTKVDKKVEPKSCDKTHTCPPCPAPELLGGPSVFLFPPKPKDTLMISRTPEVTCVVVDVSHEDPEVKFNWYVDGVEVHNAKTKPREEQYNSTYRVVSVLTVLHQDWLNGKEYKCK

>  <DESC_PART2>
VSNKALPAPIEKTISKAKGQPREPQVYTLPPSRDELTKNQVSLTCLVKGFYPSDIAVEWESNGQPENNYKTTPPVLDSDGSFFLYSKLTVDKSRWQQGNVFSCSVMHEALHNHYTQKSLSLSPG</SEQUENCE>
 </SUBUNIT_GROUP>
<SUBUNIT_GROUP>
 <SUBUNIT>3</SUBUNIT>
 <LENGTH>218</LENGTH>
 <SEQUENCE>DIVLTQSPASLAVSLGQRATISCKASQSVDFDGDSYMNWYQQKPGQPPKVLIYAASNLESGIPARFSGSGSGTDFTLNIHPVEEEDAATYYCQQSNEDPWTFGGGTKLEIKRTVAAPSVFIFPPSDEQLKSGTASVVCLLNNFYPREAKVQWKVDNALQSGNSQESVTEQDSKDSTYSLSSTLTLSKADYEKHKVYACEVTHQGLSSPVTKSFNRGEC</SEQUENCE>
 </SUBUNIT_GROUP>
<SUBUNIT_GROUP>
 <SUBUNIT>4</SUBUNIT>
 <LENGTH>218</LENGTH>
 <SEQUENCE>DIVLTQSPASLAVSLGQRATISCKASQSVDFDGDSYMNWYQQKPGQPPKVLIYAASNLESGIPARFSGSGSGTDFTLNIHPVEEEDAATYYCQQSNEDPWTFGGGTKLEIKRTVAAPSVFIFPPSDEQLKSGTASVVCLLNNFYPREAKVQWKVDNALQSGNSQESVTEQDSKDSTYSLSSTLTLSKADYEKHKVYACEVTHQGLSSPVTKSFNRGEC</SEQUENCE>
 </SUBUNIT_GROUP>
 <DISULFIDE_LINKAGE>1_22-1_96; 1_144-1_200; 1_220-3_218;1_226-2_226; 1_229-2_229; 1_261-1_321; 1_367-1_425; 2_22-2_96; 2_144-2_200; 2_220-4_218; 2_261-2_321; 2_367-2_425; 3_23-3_92; 3_138-3_198; 4_23-4_92; 4_138-4_198</DISULFIDE_LINKAGE>
<GLYCOSYLATION>
 <GLYCOSYLATION_TYPE>MAMMALIAN</GLYCOSYLATION_TYPE>
 <N_GLYCOSYLATION>1_297; 2_297</N_GLYCOSYLATION>
 <O_GLYCOSYLATION/>
 <C_GLYCOSYLATION/>
 </GLYCOSYLATION>
<MODIFICATION_GROUP>
<PHYSICAL_MODIFICATION_GROUP>
 <ROLE/>
 <NUMBER_OF_PARAMETERS>0</NUMBER_OF_PARAMETERS>
<PARAMETER_GROUP>
 <PARAMETER/>
<AMOUNT>
 <AVERAGE/>
 <LOW_LIMIT/>
 <HIGH_LIMIT/>
 <UNIT/>
 <NON_NUMERIC_VALUE/>
 </AMOUNT>
 </PARAMETER_GROUP>
 </PHYSICAL_MODIFICATION_GROUP>
<AGENT_MODIFICATION_GROUP>
 <AGENT_MODIFICATION_TYPE/>
 <ROLE/>
 <MODIFICATION_AGENT/>
 <MODIFICATION_AGENT_ID/>
 <MODIFICATION_PROCESS/>
 <AMOUNT_TYPE/>
<AMOUNT>
 <AVERAGE/>
 <LOW_LIMIT/>
 <HIGH_LIMIT/>
 <UNIT/>
 <NON_NUMERIC_VALUE/>
 </AMOUNT>
 </AGENT_MODIFICATION_GROUP>
<STRUCTURAL_MODIFICATION_GROUP>
 <RESIDUE_MODIFIED>GLUTAMINE</RESIDUE_MODIFIED>
 <RESIDUE_SITE>1_1; 2_1</RESIDUE_SITE>
 <NUMBER_OF_FRAGMENTS_MOIETIES/>
<MOLECULAR_FRAGMENT_MOIETY>
 <STRUCTURAL_MODIFICATION_TYPE>AMINO ACID SUBSTITUTION</STRUCTURAL_MODIFICATION_TYPE>
 <ROLE>N-TERMINAL PYROGLU FORMATION</ROLE>
 <FRAGMENT_NUMBER/>
 <MOLECULAR_FRAGMENT_NAME>PIDOLIC ACID</MOLECULAR_FRAGMENT_NAME>
 <MOLECULAR_FRAGMENT_ID>SZB83O1W42</MOLECULAR_FRAGMENT_ID>
 <FRAGMENT_CONNECTIVTY/>
 <AMOUNT_TYPE/>
<AMOUNT>
 <AVERAGE/>
 <LOW_LIMIT/>
 <HIGH_LIMIT/>
 <UNIT/>
 <NON_NUMERIC_VALUE>COMPLETE</NON_NUMERIC_VALUE>
 </AMOUNT>
 </MOLECULAR_FRAGMENT_MOIETY>
 </STRUCTURAL_MODIFICATION_GROUP>
 </MODIFICATION_GROUP>
<MODIFICATION_GROUP>
<PHYSICAL_MODIFICATION_GROUP>
 <ROLE/>
 <NUMBER_OF_PARAMETERS>0</NUMBER_OF_PARAMETERS>
<PARAMETER_GROUP>
 <PARAMETER/>
<AMOUNT>
 <AVERAGE/>
 <LOW_LIMIT/>
 <HIGH_LIMIT/>
 <UNIT/>
 <NON_NUMERIC_VALUE/>
 </AMOUNT>
 </PARAMETER_GROUP>
 </PHYSICAL_MODIFICATION_GROUP>
<AGENT_MODIFICATION_GROUP>
 <AGENT_MODIFICATION_TYPE/>
 <ROLE/>
 <MODIFICATION_AGENT/>
 <MODIFICATION_AGENT_ID/>
 <MODIFICATION_PROCESS/>
 <AMOUNT_TYPE/>
<AMOUNT>
 <AVERAGE/>
 <LOW_LIMIT/>
 <HIGH_LIMIT/>
 <UNIT/>
 <NON_NUMERIC_VALUE/>
 </AMOUNT>
 </AGENT_MODIFICATION_GROUP>
<STRUCTURAL_MODIFICATION_GROUP>
 <RESIDUE_MODIFIED>CYSTEINE</RESIDUE_MODIFIED>
 <RESIDUE_SITE>1_226; 1_229; 2_226; 2_229; 3_218; 4_218</RESIDUE_SITE>
 <NUMBER_OF_FRAGMENTS_MOIETIES/>
<MOLECULAR_FRAGMENT_MOIETY>
 <STRUCTURAL_MODIFICATION_TYPE>AMINO ACID SUBSTITUTION</STRUCTURAL_MODIFICATION_TYPE>
 <ROLE>TOXIN CONJUGATION</ROLE>
 <FRAGMENT_NUMBER>1</FRAGMENT_NUMBER>
 <MOLECULAR_FRAGMENT_NAME>CYSTEINE-VC-MMAE</MOLECULAR_FRAGMENT_NAME>
 <MOLECULAR_FRAGMENT_ID>6603L01WUR</MOLECULAR_FRAGMENT_ID>
 <FRAGMENT_CONNECTIVTY/>
 <AMOUNT_TYPE>MOLE RATIO</AMOUNT_TYPE>
<AMOUNT>
 <AVERAGE>4.5</AVERAGE>
 <LOW_LIMIT/>
 <HIGH_LIMIT/>
 <UNIT/>
 <NON_NUMERIC_VALUE/>
 </AMOUNT>
 </MOLECULAR_FRAGMENT_MOIETY>
 </STRUCTURAL_MODIFICATION_GROUP>
 </MODIFICATION_GROUP>
<PROPERTY_GROUP>
 <PROPERTY_TYPE/>
 <PROPERTY/>
<PROPERTY_DESCRIPTION>
 <SUBSTANCE_NAME/>
 <SUBSTANCE_ID/>
 <SUBSTANCE_ID/>
 <AMOUNT_TYPE/>
<AMOUNT>


>  <DESC_PART3>
<AVERAGE/>
 <LOW_LIMIT/>
 <HIGH_LIMIT/>
 <UNIT/>
 <NON_NUMERIC_VALUE/>
 </AMOUNT>
 </PROPERTY_DESCRIPTION>
 </PROPERTY_GROUP>
<MOLECULAR_WEIGHT>
 <MOLECULAR_WEIGHT_TYPE>NUMBER</MOLECULAR_WEIGHT_TYPE>
 <MOLECULAR_WEIGHT_METHOD>CALCULATED</MOLECULAR_WEIGHT_METHOD>
<AMOUNT>
 <AVERAGE>150500</AVERAGE>
 <LOW_LIMIT/>
 <HIGH_LIMIT/>
 <UNIT/>
 <NON_NUMERIC_VALUE/>
 </AMOUNT>
 </MOLECULAR_WEIGHT>
 <COMMENTS/>
 <PUBLIC_DOMAIN/>
 </PROTEIN>
 </ELEMENT_TYPE>
<REFERENCE_SOURCE_GROUP>
 <PUBLIC_DOMAIN/>
 <REFERENCE_SOURCE_TYPE/>
 <REFERENCE_SOURCE_IDENTIFIER/>
 <REFERENCE_SOURCE_CITATION/>
 </REFERENCE_SOURCE_GROUP>
 </SINGLE_SUBSTANCE>
 </SUBSTANCE>

>  <CDBREGNO>
38689

>  <STRUCTURE_ID>
17887

$$$$
