
  Symyx   11291317582D 1   1.00000     0.00000     0

  6  5  0     0  0            999 V2000
    0.6750   -1.1667    0.0000 C   0  0  0  0  0  0           0  0  0
    1.9750   -1.1667    0.0000 C   0  0  0  0  0  0           0  0  0
    2.6667    0.0000    0.0000 O   0  0  0  0  0  0           0  0  0
    0.0000    0.0000    0.0000 O   0  0  0  0  0  0           0  0  0
    0.0000   -2.2917    0.0000 C   0  0  0  0  0  0           0  0  0
    2.6667   -2.2917    0.0000 C   0  0  0  0  0  0           0  0  0
  2  1  1  0     0  0
  3  2  2  0     0  0
  4  1  2  0     0  0
  5  1  1  0     0  0
  6  2  1  0     0  0
M  END
>  <SUBSTANCE_ID>
50109

>  <UNII>
G44KTI7KIS

>  <DESC_PART1>
<STRUCTURALLY_DIVERSE>
<SOURCE_MATERIAL>
<SOURCE_MATERIAL_CLASS>ORGANISM</SOURCE_MATERIAL_CLASS>
<SOURCE_MATERIAL_TYPE>MAMMAL</SOURCE_MATERIAL_TYPE>
<SOURCE_MATERIAL_STATE>PASTURIZED</SOURCE_MATERIAL_STATE>
<PARENT_SUBSTANCE_ID>O628M2YS7P</PARENT_SUBSTANCE_ID>
<PARENT_SUBSTANCE_NAME>BOS TAURUS</PARENT_SUBSTANCE_NAME>
<DEVELOPMENTAL_STAGE>ADULT, FEMALE, LACTATING</DEVELOPMENTAL_STAGE>
<PART_GROUP>
<PART>MILK</PART>
<PART_LOCATION/>
</PART_GROUP>
<FRACTION>
<MATERIAL_TYPE/>
<FRACTION>PROTEIN CASEIN</FRACTION>
</FRACTION>
<ORGANISM>
<KINGDOM/>
<PHYLUM/>
<CLASS/>
<ORDER/>
<FAMILY/>
<GENUS/>
<SPECIES/>
<HYBRID_SPECIES_MATERNAL_ORGANISM_ID/>
<HYBRID_SPECIES_PATERNAL_ORGANISM_ID/>
<HYBRID_TYPE/>
<INFRASPECIFIC_TYPE/>
<INFRASPECIFIC_DESCRIPTION/>
</ORGANISM>
</SOURCE_MATERIAL>
<MODIFICATION_GROUP>
<MODIFICATION_TYPE/>
<RESIDUE_MODIFIED/>
<RESIDUE_SITE/>
<PHYSICAL_MODIFICATION>
<ROLE/>
<NUMBER_OF_PARAMETERS>1</NUMBER_OF_PARAMETERS>
<PARAMETER_GROUP>
<PARAMETER>HEAT</PARAMETER>
<AMOUNT_TYPE/>
<AMOUNT>
<AVERAGE/>
<LOW_LIMIT/>
<HIGH_LIMIT>37</HIGH_LIMIT>
<UNIT>C</UNIT>
<NON_NUMERIC_VALUE/>
</AMOUNT>
</PARAMETER_GROUP>
</PHYSICAL_MODIFICATION>
<STRUCTURAL_MODIFICATION>
<STRUCTURAL_MODIFICATION_TYPE/>
<MOIETY>
<ROLE/>
<MOIETY_ID/>
<MOIETY_NAME/>
<AMOUNT_TYPE/>
<AMOUNT>
<AVERAGE/>
<LOW_LIMIT/>
<HIGH_LIMIT/>
<UNIT/>
<NON_NUMERIC_VALUE/>
</AMOUNT>
</MOIETY>
<MOLECULAR_FRAGMENT>
<ROLE/>
<MOLECULAR_FRAGMENT_ID/>
<MOLECULAR_FRAGMENT_NAME/>
<AMOUNT_TYPE/>
<AMOUNT>
<AVERAGE/>
<LOW_LIMIT/>
<HIGH_LIMIT/>
<UNIT/>
<NON_NUMERIC_VALUE/>
</AMOUNT>
</MOLECULAR_FRAGMENT>
</STRUCTURAL_MODIFICATION>
<AGENT_MODIFICATION>
<AGENT_MODIFICATION_TYPE>BIOLOGICAL</AGENT_MODIFICATION_TYPE>
<ROLE>FERMENTATION</ROLE>
<MODIFICATION_AGENT_ID>OEL951084E</MODIFICATION_AGENT_ID>
<MODIFICATION_AGENT>CHEESE STARTER (LACTOCOCCCUS LACTIS)</MODIFICATION_AGENT>
<MODIFICATION_PROCESS>CULTURED</MODIFICATION_PROCESS>
<AMOUNT_TYPE/>
<AMOUNT>
<AVERAGE/>
<LOW_LIMIT/>
<HIGH_LIMIT/>
<UNIT/>
<NON_NUMERIC_VALUE/>
</AMOUNT>
</AGENT_MODIFICATION>
</MODIFICATION_GROUP>
<PROPERTY_GROUP>
<PROPERTY_TYPE/>
<PROPERTY_NAME/>
<SUBSTANCE_ID/>
<SUBSTANCE_NAME/>
<AMOUNT_TYPE/>
<AMOUNT>
<AVERAGE/>
<LOW_LIMIT/>
<HIGH_LIMIT/>
<UNIT/>
<NON_NUMERIC_VALUE/>
</AMOUNT>
</PROPERTY_GROUP>
<COMMENT/>
</STRUCTURALLY_DIVERSE>

>  <CDBREGNO>
1767

>  <STRUCTURE_ID>
1767

$$$$
