
  ACCLDraw07301514402D

 76 79  0  0  1  0  0  0  0  0999 V2000
   14.6408  -18.6445    0.0000 Fe  0  2  0  0  0  0  0  0  0  0  0  0
   10.5458   -8.2574    0.0000 H   0  0  0  0  0  0  0  0  0  0  0  0
   10.1182  -12.3265    0.0000 O   0  0  0  0  0  0  0  0  0  0  0  0
    9.8516   -9.2130    0.0000 N   0  0  3  0  0  0  0  0  0  0  0  0
    8.4632  -11.1241    0.0000 O   0  0  0  0  0  0  0  0  0  0  0  0
    9.6378  -11.2475    0.0000 C   0  0  0  0  0  0  0  0  0  0  0  0
   10.3320  -10.2920    0.0000 C   0  0  2  0  0  0  0  0  0  0  0  0
   11.5067  -10.4154    0.0000 C   0  0  0  0  0  0  0  0  0  0  0  0
   11.9871  -11.4944    0.0000 C   0  0  0  0  0  0  0  0  0  0  0  0
   11.3966  -12.5173    0.0000 C   0  0  0  0  0  0  0  0  0  0  0  0
   12.1869  -13.3950    0.0000 N   0  0  3  0  0  0  0  0  0  0  0  0
   13.2659  -12.9145    0.0000 C   0  0  0  0  0  0  0  0  0  0  0  0
   13.1424  -11.7399    0.0000 N   0  0  0  0  0  0  0  0  0  0  0  0
   14.4832  -15.7627    0.0000 C   0  0  0  0  0  0  0  0  0  0  0  0
   15.6542  -15.9169    0.0000 C   0  0  0  0  0  0  0  0  0  0  0  0
   16.1062  -17.0081    0.0000 N   0  5  0  0  0  0  0  0  0  0  0  0
   17.2772  -17.1622    0.0000 C   0  0  0  0  0  0  0  0  0  0  0  0
   17.7292  -18.2534    0.0000 C   0  0  0  0  0  0  0  0  0  0  0  0
   17.5750  -19.4244    0.0000 C   0  0  0  0  0  0  0  0  0  0  0  0
   18.2940  -20.3614    0.0000 C   0  0  0  0  0  0  0  0  0  0  0  0
   19.4751  -20.3614    0.0000 C   0  0  0  0  0  0  0  0  0  0  0  0
   17.5750  -21.2984    0.0000 C   0  0  0  0  0  0  0  0  0  0  0  0
   17.9896  -22.4044    0.0000 C   0  0  0  0  0  0  0  0  0  0  0  0
   17.2392  -23.3164    0.0000 C   0  0  0  0  0  0  0  0  0  0  0  0
   16.3297  -21.0474    0.0000 C   0  0  0  0  0  0  0  0  0  0  0  0
   15.2385  -21.4993    0.0000 C   0  0  0  0  0  0  0  0  0  0  0  0
   14.0675  -21.3452    0.0000 C   0  0  0  0  0  0  0  0  0  0  0  0
   13.1304  -22.0642    0.0000 C   0  0  0  0  0  0  0  0  0  0  0  0
   13.1304  -23.2453    0.0000 C   0  0  0  0  0  0  0  0  0  0  0  0
   12.1934  -21.3452    0.0000 C   0  0  0  0  0  0  0  0  0  0  0  0
   11.0874  -21.7598    0.0000 C   0  0  0  0  0  0  0  0  0  0  0  0
   11.0988  -22.9408    0.0000 C   0  0  0  0  0  0  0  0  0  0  0  0
   10.0816  -23.5412    0.0000 C   0  0  0  0  0  0  0  0  0  0  0  0
   10.0930  -24.7222    0.0000 O   0  0  0  0  0  0  0  0  0  0  0  0
    9.0531  -22.9605    0.0000 O   0  0  0  0  0  0  0  0  0  0  0  0
   12.4445  -20.0998    0.0000 C   0  0  0  0  0  0  0  0  0  0  0  0
   11.9925  -19.0086    0.0000 C   0  0  0  0  0  0  0  0  0  0  0  0
   12.1467  -17.8376    0.0000 C   0  0  0  0  0  0  0  0  0  0  0  0
   11.4276  -16.9006    0.0000 C   0  0  0  0  0  0  0  0  0  0  0  0
   10.2465  -16.9006    0.0000 C   0  0  0  0  0  0  0  0  0  0  0  0
    9.8425  -15.7907    0.0000 C   0  0  0  0  0  0  0  0  0  0  0  0
    8.6794  -15.5856    0.0000 C   0  0  0  0  0  0  0  0  0  0  0  0
    8.2754  -14.4758    0.0000 O   0  0  0  0  0  0  0  0  0  0  0  0
    7.9202  -16.4904    0.0000 O   0  0  0  0  0  0  0  0  0  0  0  0
   12.1467  -15.9636    0.0000 C   0  0  0  0  0  0  0  0  0  0  0  0
   11.7320  -14.8577    0.0000 C   0  0  0  0  0  0  0  0  0  0  0  0
   13.3920  -16.2147    0.0000 C   0  0  0  0  0  0  0  0  0  0  0  0
   13.2379  -17.3856    0.0000 N   0  0  0  0  0  0  0  0  0  0  0  0
   13.6155  -20.2540    0.0000 N   0  5  0  0  0  0  0  0  0  0  0  0
   16.4838  -19.8764    0.0000 N   0  0  0  0  0  0  0  0  0  0  0  0
   17.5283  -15.9169    0.0000 C   0  0  0  0  0  0  0  0  0  0  0  0
   18.6342  -15.5023    0.0000 C   0  0  0  0  0  0  0  0  0  0  0  0
   18.8281  -14.3372    0.0000 C   0  0  0  0  0  0  0  0  0  0  0  0
   16.5913  -15.1979    0.0000 C   0  0  0  0  0  0  0  0  0  0  0  0
   16.5913  -14.0168    0.0000 C   0  0  0  0  0  0  0  0  0  0  0  0
   14.1664  -12.0457    0.0000 O   0  0  0  0  0  0  0  0  0  0  0  0
   15.2763  -12.4496    0.0000 C   0  0  0  0  0  0  0  0  0  0  0  0
   16.1811  -11.6904    0.0000 C   0  0  0  0  0  0  0  0  0  0  0  0
   15.9760  -10.5273    0.0000 C   0  0  0  0  0  0  0  0  0  0  0  0
   16.8808   -9.7681    0.0000 C   0  0  2  0  0  0  0  0  0  0  0  0
   16.6757   -8.6049    0.0000 N   0  0  3  0  0  0  0  0  0  0  0  0
   17.9907  -10.1721    0.0000 C   0  0  0  0  0  0  0  0  0  0  0  0
   18.8954   -9.4129    0.0000 O   0  0  0  0  0  0  0  0  0  0  0  0
   15.4814  -13.6128    0.0000 O   0  0  0  0  0  0  0  0  0  0  0  0
   18.1957  -11.3352    0.0000 O   0  0  0  0  0  0  0  0  0  0  0  0
   15.5658   -8.2010    0.0000 H   0  0  0  0  0  0  0  0  0  0  0  0
   12.1075  -27.3791    0.0000 N   0  0  3  0  0  0  0  0  0  0  0  0
   13.1304  -26.7886    0.0000 C   0  0  1  0  0  0  0  0  0  0  0  0
   13.1304  -25.6075    0.0000 C   0  0  0  0  0  0  0  0  0  0  0  0
   14.1533  -25.0169    0.0000 C   0  0  0  0  0  0  0  0  0  0  0  0
   15.1761  -25.6075    0.0000 O   0  0  0  0  0  0  0  0  0  0  0  0
   14.1533  -23.8358    0.0000 O   0  0  0  0  0  0  0  0  0  0  0  0
   14.1533  -27.3791    0.0000 C   0  0  0  0  0  0  0  0  0  0  0  0
   14.1533  -28.5602    0.0000 O   0  0  0  0  0  0  0  0  0  0  0  0
   15.1761  -26.7886    0.0000 O   0  0  0  0  0  0  0  0  0  0  0  0
   11.0846  -26.7886    0.0000 H   0  0  0  0  0  0  0  0  0  0  0  0
  4  2  1  0  0  0  0
  6  3  1  0  0  0  0
  4  7  1  0  0  0  0
  6  5  2  0  0  0  0
  7  6  1  0  0  0  0
  7  8  1  1  0  0  0
  8  9  1  0  0  0  0
  9 13  1  0  0  0  0
 10  9  2  0  0  0  0
 11 10  1  0  0  0  0
 12 11  1  0  0  0  0
 13 12  2  0  0  0  0
 14 15  1  0  0  0  0
 15 16  1  0  0  0  0
 16 17  1  0  0  0  0
 17 18  1  0  0  0  0
 18 19  2  0  0  0  0
 20 19  1  0  0  0  0
 21 20  1  0  0  0  0
 22 20  2  0  0  0  0
 23 22  1  0  0  0  0
 24 23  2  0  0  0  0
 25 22  1  0  0  0  0
 26 25  1  0  0  0  0
 27 26  2  0  0  0  0
 28 27  1  0  0  0  0
 29 28  1  0  0  0  0
 30 28  2  0  0  0  0
 31 30  1  0  0  0  0
 32 31  1  0  0  0  0
 33 32  1  0  0  0  0
 34 33  1  0  0  0  0
 35 33  2  0  0  0  0
 36 30  1  0  0  0  0
 37 36  2  0  0  0  0
 38 37  1  0  0  0  0
 38 39  1  0  0  0  0
 40 39  1  0  0  0  0
 41 40  1  0  0  0  0
 42 41  1  0  0  0  0
 43 42  1  0  0  0  0
 44 42  2  0  0  0  0
 39 45  2  0  0  0  0
 46 45  1  0  0  0  0
 45 47  1  0  0  0  0
 47 14  2  0  0  0  0
 48 47  1  0  0  0  0
 48 38  2  0  0  0  0
 36 49  1  0  0  0  0
 49 27  1  0  0  0  0
 25 50  2  0  0  0  0
 50 19  1  0  0  0  0
 51 17  2  0  0  0  0
 52 51  1  0  0  0  0
 53 52  2  0  0  0  0
 54 51  1  0  0  0  0
 15 54  2  0  0  0  0
 55 54  1  0  0  0  0
 57 56  2  0  0  0  0
 58 57  1  0  0  0  0
 59 58  1  0  0  0  0
 60 59  1  6  0  0  0
 61 60  1  0  0  0  0
 60 62  1  0  0  0  0
 62 63  2  0  0  0  0
 57 64  1  0  0  0  0
 62 65  1  0  0  0  0
 61 66  1  0  0  0  0
 64 55  1  0  0  0  0
 67 68  1  0  0  0  0
 68 69  1  1  0  0  0
 69 70  1  0  0  0  0
 70 71  2  0  0  0  0
 70 72  1  0  0  0  0
 68 73  1  0  0  0  0
 73 74  2  0  0  0  0
 73 75  1  0  0  0  0
 67 76  1  0  0  0  0
 72 29  1  0  0  0  0
M  END
>  <SUBSTANCE_ID>
75482

>  <UNII>
01UIN5OC49

>  <DESC_PART1>
<PROTEIN>
 <SEQUENCE_TYPE>COMPLETE</SEQUENCE_TYPE>
 <NUMBER_OF_SUBUNITS>1</NUMBER_OF_SUBUNITS>
<SUBUNIT_GROUP>
 <SUBUNIT>1</SUBUNIT>
 <LENGTH>612</LENGTH>
 <SEQUENCE>DTTLTNVTDPSLDLTALSWEVGCGAPVPLVKCDENSPYRTITGDCNNRRSPALGAANRALARWLPAEYEDGLALPFGWTQRKTRNGFRVPLAREVSNKIVGYLDEEGVLDQNRSLLFMQWGQIVDHDLDFAPETELGSNEHSKTQCEEYCIQGDNCFPIMFPKNDPKLKTQGKCMPFFRAGFVCPTPPYQSLAREQINAVTSFLDASLVYGSEPSLASRLRNLSSPLGLMAVNQEAWDHGLAYLPFNNKKPSPCEFINTTARVPCFLAGDFRASEQILLATAHTLLLREHNRLARELKKLNPHWNGEKLYQEARKILGAFIQIITFRDYLPIVLGSEMQKWIPPYQGYNNSVDPRISNVFTFAFRFGHMEVPSTVSRLDENYQPWGPEAELPLHTLFFNTWRIIKDGGIDPLVRGLLAKKSKLMNQDKMVTSELRNKLFQPTHKIHGFDLAAINLQRCRDHGMPGYNSWRGFCGLSQPKTLKGLQTVLKNKILAKKLMDLYKTPDNIDIWIGGNAEPMVERGRVGPLLACLLGRQFQQIRDGDRFWWENPGVFTEKQRDSLQKVSFSRLICDNTHITKVPLHAFQANNYPHDFVDCSTVDKLDLSPWASREN</SEQUENCE>
 </SUBUNIT_GROUP>
 <DISULFIDE_LINKAGE>1_32-1_45;1_146-1_156;1_150-1_174;1_254-1_265;1_473-1_530;1_571-1_596;</DISULFIDE_LINKAGE>
<OTHER_LINKAGE>
 <SITE>1_125-1_275-1_368</SITE>
 <LINKAGE_TYPE/>
 </OTHER_LINKAGE>
<GLYCOSYLATION>
 <GLYCOSYLATION_TYPE>MAMMALIAN</GLYCOSYLATION_TYPE>
 <N_GLYCOSYLATION>1_6;1_112;1_222;1_258;1_349;</N_GLYCOSYLATION>
 <O_GLYCOSYLATION/>
 <C_GLYCOSYLATION/>
 </GLYCOSYLATION>
<MODIFICATION_GROUP>
<PHYSICAL_MODIFICATION_GROUP>
 <ROLE/>
 <NUMBER_OF_PARAMETERS>0</NUMBER_OF_PARAMETERS>
<PARAMETER_GROUP>
 <PARAMETER/>
<AMOUNT>
 <AVERAGE/>
 <LOW_LIMIT/>
 <HIGH_LIMIT/>
 <UNIT/>
 <NON_NUMERIC_VALUE/>
 </AMOUNT>
 </PARAMETER_GROUP>
 </PHYSICAL_MODIFICATION_GROUP>
<AGENT_MODIFICATION_GROUP>
 <AGENT_MODIFICATION_TYPE/>
 <ROLE/>
 <MODIFICATION_AGENT/>
 <MODIFICATION_AGENT_ID/>
 <MODIFICATION_PROCESS/>
 <AMOUNT_TYPE/>
<AMOUNT>
 <AVERAGE/>
 <LOW_LIMIT/>
 <HIGH_LIMIT/>
 <UNIT/>
 <NON_NUMERIC_VALUE/>
 </AMOUNT>
 </AGENT_MODIFICATION_GROUP>
<STRUCTURAL_MODIFICATION_GROUP>
 <RESIDUE_MODIFIED>D</RESIDUE_MODIFIED>
 <RESIDUE_SITE>1_125</RESIDUE_SITE>
 <NUMBER_OF_FRAGMENTS_MOIETIES/>
 <AMOUNT_TYPE/>
<MOLECULAR_FRAGMENT_MOIETY>
 <STRUCTURAL_MODIFICATION_TYPE>HEME BINDING, COVALENT</STRUCTURAL_MODIFICATION_TYPE>
 <ROLE>AMINO ACID SUBSTITUTION</ROLE>
 <FRAGMENT_NUMBER/>
 <MOLECULAR_FRAGMENT_NAME/>
 <MOLECULAR_FRAGMENT_ID/>
 <MOLECULAR_FRAGMENT_INCHI/>
 <MOLFILE external="1"/>
 <FRAGMENT_CONNECTIVTY>67; 73</FRAGMENT_CONNECTIVTY>
<AMOUNT>
 <AVERAGE/>
 <LOW_LIMIT/>
 <HIGH_LIMIT/>
 <UNIT/>
 <NON_NUMERIC_VALUE/>
 </AMOUNT>
 </MOLECULAR_FRAGMENT_MOIETY>
 </STRUCTURAL_MODIFICATION_GROUP>
<STRUCTURAL_MODIFICATION_GROUP>
 <RESIDUE_MODIFIED>E</RESIDUE_MODIFIED>
 <RESIDUE_SITE>1_275</RESIDUE_SITE>
 <NUMBER_OF_FRAGMENTS_MOIETIES/>
 <AMOUNT_TYPE/>
<MOLECULAR_FRAGMENT_MOIETY>
 <STRUCTURAL_MODIFICATION_TYPE>HEME BINDING, COVALENT</STRUCTURAL_MODIFICATION_TYPE>
 <ROLE>AMINO ACID SUBSTITUTION</ROLE>
 <FRAGMENT_NUMBER/>
 <MOLECULAR_FRAGMENT_NAME/>
 <MOLECULAR_FRAGMENT_ID/>
 <MOLECULAR_FRAGMENT_INCHI/>
 <MOLFILE external="1"/>
 <FRAGMENT_CONNECTIVTY>61; 62</FRAGMENT_CONNECTIVTY>
<AMOUNT>
 <AVERAGE/>
 <LOW_LIMIT/>
 <HIGH_LIMIT/>
 <UNIT/>
 <NON_NUMERIC_VALUE/>
 </AMOUNT>
 </MOLECULAR_FRAGMENT_MOIETY>
 </STRUCTURAL_MODIFICATION_GROUP>
<STRUCTURAL_MODIFICATION_GROUP>
 <RESIDUE_MODIFIED>H</RESIDUE_MODIFIED>
 <RESIDUE_SITE>1_368</RESIDUE_SITE>
 <NUMBER_OF_FRAGMENTS_MOIETIES/>
 <AMOUNT_TYPE/>
<MOLECULAR_FRAGMENT_MOIETY>
 <STRUCTURAL_MODIFICATION_TYPE>METAL BINDING</STRUCTURAL_MODIFICATION_TYPE>
 <ROLE>AMINO ACID SUBSTITUTION</ROLE>
 <FRAGMENT_NUMBER/>
 <MOLECULAR_FRAGMENT_NAME/>
 <MOLECULAR_FRAGMENT_ID/>
 <MOLECULAR_FRAGMENT_INCHI/>
 <MOLFILE external="1"/>
 <FRAGMENT_CONNECTIVTY>4; 6</FRAGMENT_CONNECTIVTY>
<AMOUNT>
 <AVERAGE/>
 <LOW_LIMIT/>
 <HIGH_LIMIT/>
 <UNIT/>
 <NON_NUMERIC_VALUE/>
 </AMOUNT>
 </MOLECULAR_FRAGMENT_MOIETY>
 </STRUCTURAL_MODIFICATION_GROUP>
 </MODIFICATION_GROUP>
<PROPERTY_GROUP>
 <PROPERTY_TYPE/>
 <PROPERTY/>
<PROPERTY_DESCRIPTION>
 <SUBSTANCE_NAME/>
 <SUBSTANCE_ID/>
 <SUBSTANCE_ID/>
 <AMOUNT_TYPE/>
<AMOUNT>
 <AVERAGE/>
 <LOW_LIMIT/>
 <HIGH_LIMIT/>
 <UNIT/>
 <NON_NUMERIC_VALUE/>
 </AMOUNT>
 </PROPERTY_DESCRIPTION>
 </PROPERTY_GROUP>
<MOLECULAR_WEIGHT>
 <MOLECULAR_WEIGHT_TYPE/>
 <MOLECULAR_WEIGHT_METHOD/>
<AMOUNT>
 <AVERAGE/>
 <LOW_LIMIT/>
 <HIGH_LIMIT/>
 <UNIT/>
 <NON_NUMERIC_VALUE/>
 </AMOUNT>
 </MOLECULAR_WEIGHT>
 <COMMENTS/>
 <PUBLIC_DOMAIN/>
 </PROTEIN>

>  <DESC_PART3>


>  <COMMENTS>


>  <CDBREGNO>
73582

>  <STRUCTURE_ID>
40408

$$$$
