
  Symyx   06031522062D 1   1.00000     0.00000     0

 43 43  0     1  0            999 V2000
    4.8172   -3.5355    0.0000 N   0  0  0  0  0  0           0  0  0
    5.8400   -2.9450    0.0000 C   0  0  0  0  0  0           0  0  0
    6.8629   -3.5355    0.0000 C   0  0  0  0  0  0           0  0  0
    7.8858   -2.9450    0.0000 O   0  0  0  0  0  0           0  0  0
    8.9086   -3.5355    0.0000 C   0  0  0  0  0  0           0  0  0
    9.9315   -2.9450    0.0000 C   0  0  0  0  0  0           0  0  0
   10.9544   -3.5355    0.0000 O   0  0  0  0  0  0           0  0  0
   11.9772   -2.9450    0.0000 C   0  0  0  0  0  0           0  0  0
   13.0001   -3.5355    0.0000 C   0  0  0  0  0  0           0  0  0
   14.0229   -2.9450    0.0000 N   0  0  0  0  0  0           0  0  0
   15.0458   -3.5355    0.0000 C   0  0  0  0  0  0           0  0  0
   16.0687   -2.9450    0.0000 C   0  0  0  0  0  0           0  0  0
   17.0915   -3.5355    0.0000 C   0  0  0  0  0  0           0  0  0
   18.1144   -2.9450    0.0000 N   0  0  3  0  0  0           0  0  0
    5.8400   -1.7639    0.0000 O   0  0  0  0  0  0           0  0  0
   15.0458   -4.7166    0.0000 O   0  0  0  0  0  0           0  0  0
   18.1144   -1.7639    0.0000 C   0  0  0  0  0  0           0  0  0
   19.2654   -1.4058    0.0000 C   0  0  0  0  0  0           0  0  0
   19.9392   -2.3414    0.0000 C   0  0  3  0  0  0           0  0  0
   19.2350   -3.2969    0.0000 C   0  0  0  0  0  0           0  0  0
   17.0915   -1.1734    0.0000 O   0  0  0  0  0  0           0  0  0
   19.5407   -4.4378    0.0000 O   0  0  0  0  0  0           0  0  0
   20.7744   -3.1766    0.0000 S   0  0  0  0  0  0           0  0  0
   21.9153   -2.8709    0.0000 C   0  0  0  0  0  0           0  0  0
   22.7504   -3.7061    0.0000 C   0  0  1  0  0  0           0  0  0
   23.8913   -3.4004    0.0000 C   0  0  0  0  0  0           0  0  0
   22.4447   -4.8469    0.0000 N   0  0  0  0  0  0           0  0  0
   24.1970   -2.2595    0.0000 O   0  0  0  0  0  0           0  0  0
   24.7264   -4.2355    0.0000 O   0  0  0  0  0  0           0  0  0
    4.8172   -4.7166    0.0000 C   0  0  0  0  0  0           0  0  0
    5.4077   -5.7395    0.0000 C   0  0  0  0  0  0           0  0  0
    6.5888   -5.7395    0.0000 C   0  0  0  0  0  0           0  0  0
    7.1794   -6.7624    0.0000 C   0  0  0  0  0  0           0  0  0
    8.3605   -6.7624    0.0000 N   0  0  0  0  0  0           0  0  0
    8.9510   -7.7852    0.0000 C   0  0  0  0  0  0           0  0  0
   10.1321   -7.7852    0.0000 C   0  0  0  0  0  0           0  0  0
   10.7227   -8.8081    0.0000 C   0  0  0  0  0  0           0  0  0
   11.9038   -8.8081    0.0000 C   0  0  0  0  0  0           0  0  0
   12.4943   -9.8310    0.0000 C   0  0  1  0  0  0           0  0  0
   13.6754   -9.8310    0.0000 C   0  0  0  0  0  0           0  0  0
   11.9038  -10.8538    0.0000 N   0  0  0  0  0  0           0  0  0
   14.2660   -8.8081    0.0000 N   0  0  0  0  0  0           0  0  0
   14.2660  -10.8538    0.0000 O   0  0  0  0  0  0           0  0  0
  1  2  1  0     0  0
  2  3  1  0     0  0
  3  4  1  0     0  0
  4  5  1  0     0  0
  5  6  1  0     0  0
  6  7  1  0     0  0
  7  8  1  0     0  0
  8  9  1  0     0  0
  9 10  1  0     0  0
 10 11  1  0     0  0
 11 12  1  0     0  0
 12 13  1  0     0  0
 13 14  1  0     0  0
  2 15  2  0     0  0
 11 16  2  0     0  0
 17 14  1  0     0  0
 17 18  1  0     0  0
 18 19  1  0     0  0
 20 19  1  0     0  0
 14 20  1  0     0  0
 17 21  2  0     0  0
 20 22  2  0     0  0
 19 23  1  0     0  0
 23 24  1  0     0  0
 25 24  1  1     0  0
 25 26  1  0     0  0
 25 27  1  0     0  0
 26 28  2  0     0  0
 26 29  1  0     0  0
  1 30  1  0     0  0
 30 31  1  0     0  0
 31 32  1  0     0  0
 32 33  1  0     0  0
 33 34  1  0     0  0
 34 35  1  0     0  0
 35 36  1  0     0  0
 36 37  1  0     0  0
 37 38  1  0     0  0
 39 38  1  1     0  0
 39 40  1  0     0  0
 39 41  1  0     0  0
 40 42  1  0     0  0
 40 43  2  0     0  0
M  END
>  <SUBSTANCE_ID>
179957

>  <UNII>
5Y7IGH3V3Q

>  <DESC_PART1>
<PROTEIN>
 <SEQUENCE_TYPE>COMPLETE</SEQUENCE_TYPE>
 <NUMBER_OF_SUBUNITS>2</NUMBER_OF_SUBUNITS>
<SUBUNIT_GROUP>
 <SUBUNIT>1</SUBUNIT>
 <LENGTH>585</LENGTH>
 <SEQUENCE>DAHKSEVAHRFKDLGEENFKALVLIAFAQYLQQCPFEDHVKLVNEVTEFAKTCVADESAENCDKSLHTLFGDKLCTVATLRETYGEMADCCAKQEPERNECFLQHKDDNPNLPRLVRPEVDVMCTAFHDNEETFLKKYLYEIARRHPYFYAPELLFFAKRYKAAFTECCQAADKAACLLPKLDELRDEGKASSAKQRLKCASLQKFGERAFKAWAVARLSQRFPKAEFAEVSKLVTDLTKVHTECCHGDLLECADDRADLAKYICENQDSISSKLKECCEKPLLEKSHCIAEVENDEMPADLPSLAADFVESKDVCKNYAEAKDVFLGMFLYEYARRHPDYSVVLLLRLAKTYETTLEKCCAAADPHECYAKVFDEFKPLVEEPQNLIKQNCELFEQLGEYKFQNALLVRYTKKVPQVSTPTLVEVSRNLGKVGSKCCKHPEAKRMPCAEDYLSVVLNQLCVLHEKTPVSDRVTKCCTESLVNRRPCFSALEVDETYVPKEFNAETFTFHADICTLSEKERQIKKQTALVELVKHKPKATKEQLKAVMDDFAAFVEKCCKADDKETCFAEEGKKLVAASQAALGL</SEQUENCE>
 </SUBUNIT_GROUP>
<SUBUNIT_GROUP>
 <SUBUNIT>2</SUBUNIT>
 <LENGTH>40</LENGTH>
 <SEQUENCE>HGEGTFTSDLSKQMEEEAVRLFIEWLKNGGPSSGAPPPSK</SEQUENCE>
 </SUBUNIT_GROUP>
 <DISULFIDE_LINKAGE>1_53-1_62; 1_75-1_91; 1_90-1_101; 1_124-1_169; 1_168-1_177; 1_200-1_246; 1_245-1_253; 1_265-1_279; 1_278-1_289; 1_316-1_361; 1_360-1_369; 1_392-1_438; 1_437-1_448; 1_461-1_477; 1_476-1_487; 1_514-1_559; 1_558-1_567</DISULFIDE_LINKAGE>
<OTHER_LINKAGE>
 <SITE>1_34-2_40</SITE>
 <LINKAGE_TYPE>Cys-linker-Lys</LINKAGE_TYPE>
 </OTHER_LINKAGE>
<GLYCOSYLATION>
 <GLYCOSYLATION_TYPE/>
 <N_GLYCOSYLATION/>
 <O_GLYCOSYLATION/>
 <C_GLYCOSYLATION/>
 </GLYCOSYLATION>
<MODIFICATION_GROUP>
<PHYSICAL_MODIFICATION_GROUP>
 <ROLE/>
 <NUMBER_OF_PARAMETERS>0</NUMBER_OF_PARAMETERS>
<PARAMETER_GROUP>
 <PARAMETER/>
<AMOUNT>
 <AVERAGE/>
 <LOW_LIMIT/>
 <HIGH_LIMIT/>
 <UNIT/>
 <NON_NUMERIC_VALUE/>
 </AMOUNT>
 </PARAMETER_GROUP>
 </PHYSICAL_MODIFICATION_GROUP>
<AGENT_MODIFICATION_GROUP>
 <AGENT_MODIFICATION_TYPE/>
 <ROLE/>
 <MODIFICATION_AGENT/>
 <MODIFICATION_AGENT_ID/>
 <MODIFICATION_PROCESS/>
 <AMOUNT_TYPE/>
<AMOUNT>
 <AVERAGE/>
 <LOW_LIMIT/>
 <HIGH_LIMIT/>
 <UNIT/>
 <NON_NUMERIC_VALUE/>
 </AMOUNT>
 </AGENT_MODIFICATION_GROUP>
<STRUCTURAL_MODIFICATION_GROUP>
 <RESIDUE_MODIFIED>S</RESIDUE_MODIFIED>
 <RESIDUE_SITE>1_58; 1_419</RESIDUE_SITE>
 <NUMBER_OF_FRAGMENTS_MOIETIES/>
 <AMOUNT_TYPE/>
<MOLECULAR_FRAGMENT_MOIETY>
 <STRUCTURAL_MODIFICATION_TYPE/>
 <ROLE>AMINO ACID SUBSTITUTION</ROLE>
 <FRAGMENT_NUMBER/>
 <MOLECULAR_FRAGMENT_NAME>DEXFOSFOSERINE</MOLECULAR_FRAGMENT_NAME>
 <MOLECULAR_FRAGMENT_ID>VI4F0K069V</MOLECULAR_FRAGMENT_ID>
 <MOLECULAR_FRAGMENT_INCHI>InChI=1S/C3H8NO6P/c4-2(3(5)6)1-10-11(7,8)9/h2H,1,4H2,(H,5,6)(H2,7,8,9)/t2-/m0/s1</MOLECULAR_FRAGMENT_INCHI>
 <MOLFILE></MOLFILE>
 <FRAGMENT_CONNECTIVTY></FRAGMENT_CONNECTIVTY>
<AMOUNT>
 <AVERAGE/>
 <LOW_LIMIT/>
 <HIGH_LIMIT/>
 <UNIT/>
 <NON_NUMERIC_VALUE/>
 </AMOUNT>
 </MOLECULAR_FRAGMENT_MOIETY>
 </STRUCTURAL_MODIFICATION_GROUP>
<STRUCTURAL_MODIFICATION_GROUP>
 <RESIDUE_MODIFIED>T</RESIDUE_MODIFIED>
 <RESIDUE_SITE>1_420; 1_422</RESIDUE_SITE>
 <NUMBER_OF_FRAGMENTS_MOIETIES/>
 <AMOUNT_TYPE/>
<MOLECULAR_FRAGMENT_MOIETY>
 <STRUCTURAL_MODIFICATION_TYPE/>
 <ROLE>AMINO ACID SUBSTITUTION</ROLE>
 <FRAGMENT_NUMBER/>
 <MOLECULAR_FRAGMENT_NAME>THREONINE PHOSPHATE</MOLECULAR_FRAGMENT_NAME>
 <MOLECULAR_FRAGMENT_ID>3L4WX7B1EI</MOLECULAR_FRAGMENT_ID>
 <MOLECULAR_FRAGMENT_INCHI>InChI=1S/C5H12NO

>  <DESC_PART2>
6P/c1-2-3(4(6)5(7)8)12-13(9,10)11/h3-4H,2,6H2,1H3,(H,7,8)(H2,9,10,11)/t3-,4+/m1/s1</MOLECULAR_FRAGMENT_INCHI>
 <MOLFILE></MOLFILE>
 <FRAGMENT_CONNECTIVTY></FRAGMENT_CONNECTIVTY>
<AMOUNT>
 <AVERAGE/>
 <LOW_LIMIT/>
 <HIGH_LIMIT/>
 <UNIT/>
 <NON_NUMERIC_VALUE/>
 </AMOUNT>
 </MOLECULAR_FRAGMENT_MOIETY>
 </STRUCTURAL_MODIFICATION_GROUP>
<STRUCTURAL_MODIFICATION_GROUP>
 <RESIDUE_MODIFIED>C</RESIDUE_MODIFIED>
 <RESIDUE_SITE>1_34</RESIDUE_SITE>
 <NUMBER_OF_FRAGMENTS_MOIETIES/>
 <AMOUNT_TYPE/>
<MOLECULAR_FRAGMENT_MOIETY>
 <STRUCTURAL_MODIFICATION_TYPE/>
 <ROLE>AMINO ACID SUBSTITUTION</ROLE>
 <FRAGMENT_NUMBER/>
 <MOLECULAR_FRAGMENT_NAME>S-(1-((S)-23,24-DIAMINO-3,12,24-TRIOXO-7,10-DIOXA-4,13,18-TRIAZATETRACOSYL)-2,5-DIOXOPYRROLIDIN-3-YL)-L-CYSTEINE</MOLECULAR_FRAGMENT_NAME>
 <MOLECULAR_FRAGMENT_ID>COE40KKG35</MOLECULAR_FRAGMENT_ID>
 <MOLECULAR_FRAGMENT_INCHI/>
 <MOLFILE external="1"/>
 <FRAGMENT_CONNECTIVTY>27; 26</FRAGMENT_CONNECTIVTY>
<AMOUNT>
 <AVERAGE/>
 <LOW_LIMIT/>
 <HIGH_LIMIT/>
 <UNIT/>
 <NON_NUMERIC_VALUE/>
 </AMOUNT>
 </MOLECULAR_FRAGMENT_MOIETY>
 </STRUCTURAL_MODIFICATION_GROUP>
<STRUCTURAL_MODIFICATION_GROUP>
 <RESIDUE_MODIFIED>Cys</RESIDUE_MODIFIED>
 <RESIDUE_SITE>2_40</RESIDUE_SITE>
 <NUMBER_OF_FRAGMENTS_MOIETIES/>
 <AMOUNT_TYPE/>
<MOLECULAR_FRAGMENT_MOIETY>
 <STRUCTURAL_MODIFICATION_TYPE/>
 <ROLE>AMINO ACID SUBSTITUTION</ROLE>
 <FRAGMENT_NUMBER/>
 <MOLECULAR_FRAGMENT_NAME>S-(1-((S)-23,24-DIAMINO-3,12,24-TRIOXO-7,10-DIOXA-4,13,18-TRIAZATETRACOSYL)-2,5-DIOXOPYRROLIDIN-3-YL)-L-CYSTEINE</MOLECULAR_FRAGMENT_NAME>
 <MOLECULAR_FRAGMENT_ID>COE40KKG35</MOLECULAR_FRAGMENT_ID>
 <MOLECULAR_FRAGMENT_INCHI/>
 <MOLFILE external="1"/>
 <FRAGMENT_CONNECTIVTY>41; 40</FRAGMENT_CONNECTIVTY>
<AMOUNT>
 <AVERAGE/>
 <LOW_LIMIT/>
 <HIGH_LIMIT/>
 <UNIT/>
 <NON_NUMERIC_VALUE/>
 </AMOUNT>
 </MOLECULAR_FRAGMENT_MOIETY>
 </STRUCTURAL_MODIFICATION_GROUP>
 </MODIFICATION_GROUP>
<PROPERTY_GROUP>
 <PROPERTY_TYPE/>
 <PROPERTY/>
<PROPERTY_DESCRIPTION>
 <SUBSTANCE_NAME/>
 <SUBSTANCE_ID/>
 <SUBSTANCE_ID/>
 <AMOUNT_TYPE/>
<AMOUNT>
 <AVERAGE/>
 <LOW_LIMIT/>
 <HIGH_LIMIT/>
 <UNIT/>
 <NON_NUMERIC_VALUE/>
 </AMOUNT>
 </PROPERTY_DESCRIPTION>
 </PROPERTY_GROUP>
<MOLECULAR_WEIGHT>
 <MOLECULAR_WEIGHT_TYPE/>
 <MOLECULAR_WEIGHT_METHOD/>
<AMOUNT>
 <AVERAGE/>
 <LOW_LIMIT/>
 <HIGH_LIMIT/>
 <UNIT/>
 <NON_NUMERIC_VALUE/>
 </AMOUNT>
 </MOLECULAR_WEIGHT>
 <COMMENTS/>
 <PUBLIC_DOMAIN/>
 </PROTEIN>

>  <CDBREGNO>
122255

>  <STRUCTURE_ID>
81871

$$$$
