
  Symyx   06031416152D 1   1.00000     0.00000     0

 29 29  0     1  0            999 V2000
    4.7625   -7.6513    0.0000 N   0  0  3  0  0  0           0  0  0
    5.0682   -8.7922    0.0000 C   0  0  1  0  0  0           0  0  0
    4.0251   -9.3944    0.0000 C   0  0  0  0  0  0           0  0  0
    3.1561   -8.7066    0.0000 C   0  0  0  0  0  0           0  0  0
    3.5890   -7.6513    0.0000 C   0  0  0  0  0  0           0  0  0
    5.7854   -7.0608    0.0000 C   0  0  0  0  0  0           0  0  0
    6.8083   -7.6513    0.0000 C   0  0  0  0  0  0           0  0  0
    7.8311   -7.0608    0.0000 C   0  0  0  0  0  0           0  0  0
    8.8540   -7.6513    0.0000 O   0  0  0  0  0  0           0  0  0
    9.8769   -7.0608    0.0000 C   0  0  0  0  0  0           0  0  0
   10.8997   -7.6513    0.0000 C   0  0  0  0  0  0           0  0  0
   11.9226   -7.0608    0.0000 O   0  0  0  0  0  0           0  0  0
   12.9454   -7.6513    0.0000 C   0  0  0  0  0  0           0  0  0
   13.9683   -7.0608    0.0000 C   0  0  0  0  0  0           0  0  0
   14.9912   -7.6513    0.0000 C   0  0  0  0  0  0           0  0  0
    6.0911   -9.3827    0.0000 C   0  0  0  0  0  0           0  0  0
    7.1139   -8.7922    0.0000 O   0  0  0  0  0  0           0  0  0
    6.0911  -10.5638    0.0000 O   0  0  0  0  0  0           0  0  0
    5.1153   -9.9416    0.0000 H   0  0  0  0  0  0           0  0  0
   16.0140   -7.0608    0.0000 N   0  0  0  0  0  0           0  0  0
   17.1951   -7.0608    0.0000 C   0  0  0  0  0  0           0  0  0
   17.7857   -8.0837    0.0000 C   0  0  0  0  0  0           0  0  0
   17.1951   -9.1065    0.0000 C   0  0  0  0  0  0           0  0  0
   17.7857  -10.1294    0.0000 C   0  0  0  0  0  0           0  0  0
   17.1951  -11.1523    0.0000 C   0  0  1  0  0  0           0  0  0
   17.7857  -12.1751    0.0000 C   0  0  0  0  0  0           0  0  0
   16.0140  -11.1523    0.0000 N   0  0  0  0  0  0           0  0  0
   18.9668  -12.1751    0.0000 O   0  0  0  0  0  0           0  0  0
   17.1951  -13.1980    0.0000 O   0  0  0  0  0  0           0  0  0
  1  2  1  0     0  0
  2  3  1  0     0  0
  3  4  1  0     0  0
  1  5  1  0     0  0
  5  4  1  0     0  0
  1  6  1  0     0  0
  6  7  1  0     0  0
  7  8  1  0     0  0
  8  9  1  0     0  0
  9 10  1  0     0  0
 10 11  1  0     0  0
 11 12  1  0     0  0
 12 13  1  0     0  0
 13 14  1  0     0  0
 14 15  1  0     0  0
  2 16  1  0     0  0
 16 17  1  0     0  0
 16 18  2  0     0  0
  2 19  1  1     0  0
 15 20  1  0     0  0
 20 21  1  0     0  0
 21 22  1  0     0  0
 22 23  1  0     0  0
 23 24  1  0     0  0
 25 24  1  1     0  0
 25 26  1  0     0  0
 25 27  1  0     0  0
 26 28  1  0     0  0
 26 29  2  0     0  0
M  STY  1   1 SRU
M  SLB  1   1   1
M  SCN  1   1 HT
M  SAL   1  3  10  11  12
M  SBL   1  2  10  13
M  SDI   1  4    9.3654   -7.9444    9.3654   -6.7677
M  SDI   1  4   12.4340   -6.7677   12.4340   -7.9444
M  END
>  <SUBSTANCE_ID>
176324

>  <DESC_PART1>
<PROTEIN>
 <SEQUENCE_TYPE>COMPLETE</SEQUENCE_TYPE>
 <NUMBER_OF_SUBUNITS>3</NUMBER_OF_SUBUNITS>
 <SUBUNIT_GROUP>
 <SUBUNIT>1</SUBUNIT>
 <LENGTH>221</LENGTH>
 <SEQUENCE>PSCPAPEFLGGPSVFLFPPKPKDTLMISRTPEVTCVVVDVSQEDPEVQFNWYVDGVEVHNAKTKPREEQFNSTYRVVSVLTVLHQDWLNGKEYKCKVSNKGLPSSIEKTISKAKGQPREPQVYTLPPSQEEMTKNQVSLTCLVKGFYPSDIAVEWESNGQPENNYKTTPPVLDSDGSFFLYSRLTVDKSRWQEGNVFSCSVMHEALHNHYTQKSLSLSLGK</SEQUENCE>
 </SUBUNIT_GROUP>
 <SUBUNIT_GROUP>
 <SUBUNIT>2</SUBUNIT>
 <LENGTH>221</LENGTH>
 <SEQUENCE>PSCPAPEFLGGPSVFLFPPKPKDTLMISRTPEVTCVVVDVSQEDPEVQFNWYVDGVEVHNAKTKPREEQFNSTYRVVSVLTVLHQDWLNGKEYKCKVSNKGLPSSIEKTISKAKGQPREPQVYTLPPSQEEMTKNQVSLTCLVKGFYPSDIAVEWESNGQPENNYKTTPPVLDSDGSFFLYSRLTVDKSRWQEGNVFSCSVMHEALHNHYTQKSLSLSLGK</SEQUENCE>
 </SUBUNIT_GROUP>
 <SUBUNIT_GROUP>
 <SUBUNIT>3</SUBUNIT>
 <LENGTH>39</LENGTH>
 <SEQUENCE>HGEGTFTSDLSKQMEEEAVRLFIEWLKNGGPSSGAPPPS</SEQUENCE>
 </SUBUNIT_GROUP>
 <DISULFIDE_LINKAGE>1_3-2_3; 1_35-1_95; 1_141-1_199; 2_35-2_95; 2_141-2_199;</DISULFIDE_LINKAGE>
 <OTHER_LINKAGE>
 <SITE>1_1-3_27;</SITE>
 <LINKAGE_TYPE></LINKAGE_TYPE>
 </OTHER_LINKAGE>
 <GLYCOSYLATION>
 <GLYCOSYLATION_TYPE />
 <N_GLYCOSYLATION />
 <O_GLYCOSYLATION />
 <C_GLYCOSYLATION />
 </GLYCOSYLATION>
 <MODIFICATION_GROUP>
 <STRUCTURAL_MODIFICATION_GROUP>
 <RESIDUE_MODIFIED />
 <RESIDUE_SITE>3_1</RESIDUE_SITE>
 <NUMBER_OF_FRAGMENTS_MOIETIES>His</NUMBER_OF_FRAGMENTS_MOIETIES>
 <AMOUNT_TYPE />
 <MOLECULAR_FRAGMENT_MOIETY>
 <STRUCTURAL_MODIFICATION_TYPE />
 <ROLE />
 <FRAGMENT_NUMBER>amino acid substitution</FRAGMENT_NUMBER>
 <MOLECULAR_FRAGMENT_NAME>(imidazol-4-yl)acetic acid</MOLECULAR_FRAGMENT_NAME>
 <MOLECULAR_FRAGMENT_ID />
 <MOLECULAR_FRAGMENT_INCHI />
 <FRAGMENT_CONNECTIVTY>0;7;</FRAGMENT_CONNECTIVTY>
 <MOLFILE><![CDATA[
 ACCLDraw06031414552D

 9 9 0 0 0 0 0 0 0 0999 V2000
 6.8526 -8.1161 0.0000 N 0 0 3 0 0 0 0 0 0 0 0 0
 7.7289 -6.4076 0.0000 N 0 0 0 0 0 0 0 0 0 0 0 0
 6.7027 -7.0000 0.0000 C 0 0 0 0 0 0 0 0 0 0 0 0
 8.6044 -7.2831 0.0000 C 0 0 0 0 0 0 0 0 0 0 0 0
 8.0199 -8.2956 0.0000 C 0 0 0 0 0 0 0 0 0 0 0 0
 9.6273 -6.6926 0.0000 C 0 0 0 0 0 0 0 0 0 0 0 0
 10.6502 -7.2831 0.0000 C 0 0 0 0 0 0 0 0 0 0 0 0
 11.6730 -6.6926 0.0000 O 0 0 0 0 0 0 0 0 0 0 0 0
 10.6502 -8.4642 0.0000 O 0 0 0 0 0 0 0 0 0 0 0 0
 5 4 2 0 0 0 0
 4 2 1 0 0 0 0
 3 1 1 0 0 0 0
 2 3 2 0 0 0 0
 1 5 1 0 0 0 0
 4 6 1 0 0 0 0
 6 7 1 0 0 0 0
 7 8 2 0 0 0 0
 7 9 1 0 0 0 0
M END
]]></MOLFILE>
 <AMOUNT>
 <AVERAGE />
 <LOW_LIMIT />
 <HIGH_LIMIT />
 <UNIT />
 <NON_NUMERIC_VALUE />
 </AMOUNT>
 </MOLECULAR_FRAGMENT_MOIETY>
 </STRUCTURAL_MODIFICATION_GROUP>
 <STRUCTURAL_MODIFICATION_GROUP>
 <RESIDUE_MODIFIED>Ser</RESIDUE_MODIFIED>
 <RESIDUE_SITE>3_39</RESIDUE_SITE>
 <NUMBER_OF_FRAGMENTS_MOIETIES />
 <AMOUNT_TYPE />
 <MOLECULAR_FRAGMENT_MOIETY>
 <STRUCTURAL_MODIFICATION_TYPE />
 <ROLE>amino acid substitution</ROLE>
 <FRAGMENT_NUMBER />
 <MOLECULAR_FRAGMENT_NAME>serinamide</MOLECULAR_FRAGMENT_NAME>
 <MOLECULAR_FRAGMENT_ID />
 <MOLECULAR_FRAGMENT_INCHI />
 <FRAGMENT_CONNECTIVTY>4;0;</FRAGMENT_CONNECTIVTY>
 <MOLFILE><![CDATA[
 ACCLDraw06031415072D

 9 8 0 0 1 0 0 0 0 0999 V2000
 10.7320 -4.1220 0.0000 H 0 0 0 0 0 0 0 0 0 0 0 0
 7.9171 -7.4744 0.0000 H 0 0 0 0 0 0 0 0 0 0 0 0
 11.4832 -7.4619 0.0000 N 0 0 0 0 0 0 0 0 0 0 0 0
 8.7451 -7.4856 0.0000 N 0 0 3 0 0 0 0 0 0 0

>  <DESC_PART2>
0 0
 9.6783 -6.8032 0.0000 C 0 0 2 0 0 0 0 0 0 0 0 0
 10.6612 -8.6557 0.0000 O 0 0 0 0 0 0 0 0 0 0 0 0
 10.6612 -7.4676 0.0000 C 0 0 0 0 0 0 0 0 0 0 0 0
 9.6783 -5.6120 0.0000 C 0 0 0 0 0 0 0 0 0 0 0 0
 10.7038 -5.0207 0.0000 O 0 0 0 0 0 0 0 0 0 0 0 0
 9 1 1 0 0 0 0
 4 2 1 0 0 0 0
 7 3 1 0 0 0 0
 7 6 2 0 0 0 0
 5 7 1 0 0 0 0
 8 9 1 0 0 0 0
 5 8 1 1 0 0 0
 4 5 1 0 0 0 0
G 1 9
H
G 2 4
H
M STY 4 1 SUP 2 SUP 3 SUP 4 DAT
M SLB 4 1 1 2 2 3 3 4 4
M SAL 1 1 1
M SBL 1 1 1
M SMT 1 H
M SCL 1 LGRP
M SAL 2 1 2
M SBL 2 1 2
M SMT 2 H
M SCL 2 LGRP
M SAL 3 6 4 5 6 7 8 9
M SBL 3 3 3 2 1
M SMT 3 S
M SAP 3 3 9 1 Cx 4 2 Al 7 3 Br
M SCL 3 AA
M SAL 4 6 4 5 6 7 8 9
M SDT 4 SMMX:sequence position data 
M SDD 4 2.0469 -7.5391 DA ALL 1 
M SDS EXP 3 1 2 3
M END
]]></MOLFILE>
 <AMOUNT>
 <AVERAGE />
 <LOW_LIMIT />
 <HIGH_LIMIT />
 <UNIT />
 <NON_NUMERIC_VALUE />
 </AMOUNT>
 </MOLECULAR_FRAGMENT_MOIETY>
 </STRUCTURAL_MODIFICATION_GROUP>
 <STRUCTURAL_MODIFICATION_GROUP>
 <RESIDUE_MODIFIED>Pro</RESIDUE_MODIFIED>
 <RESIDUE_SITE>1_1</RESIDUE_SITE>
 <NUMBER_OF_FRAGMENTS_MOIETIES />
 <AMOUNT_TYPE />
 <MOLECULAR_FRAGMENT_MOIETY>
 <STRUCTURAL_MODIFICATION_TYPE />
 <ROLE />
 <FRAGMENT_NUMBER />
 <MOLECULAR_FRAGMENT_NAME />
 <MOLECULAR_FRAGMENT_ID />
 <MOLECULAR_FRAGMENT_INCHI />
 <FRAGMENT_CONNECTIVTY>0;16;</FRAGMENT_CONNECTIVTY>
 <AMOUNT>
 <AVERAGE />
 <LOW_LIMIT />
 <HIGH_LIMIT />
 <UNIT />
 <NON_NUMERIC_VALUE />
 </AMOUNT>
 <MOLFILE external="1"></MOLFILE>
 </MOLECULAR_FRAGMENT_MOIETY>
 </STRUCTURAL_MODIFICATION_GROUP>
 <STRUCTURAL_MODIFICATION_GROUP>
 <RESIDUE_MODIFIED>Lys</RESIDUE_MODIFIED>
 <RESIDUE_SITE>3_27</RESIDUE_SITE>
 <NUMBER_OF_FRAGMENTS_MOIETIES />
 <AMOUNT_TYPE />
 <MOLECULAR_FRAGMENT_MOIETY>
 <STRUCTURAL_MODIFICATION_TYPE />
 <ROLE />
 <FRAGMENT_NUMBER />
 <MOLECULAR_FRAGMENT_NAME />
 <MOLECULAR_FRAGMENT_ID />
 <MOLECULAR_FRAGMENT_INCHI />
 <FRAGMENT_CONNECTIVTY>27;26;</FRAGMENT_CONNECTIVTY>
 <AMOUNT>
 <AVERAGE />
 <LOW_LIMIT />
 <HIGH_LIMIT />
 <UNIT />
 <NON_NUMERIC_VALUE />
 </AMOUNT>
 <MOLFILE external="1"></MOLFILE>
 </MOLECULAR_FRAGMENT_MOIETY>
 </STRUCTURAL_MODIFICATION_GROUP>
 </MODIFICATION_GROUP>
 <PROPERTY_GROUP>
 <PROPERTY_TYPE />
 <PROPERTY />
 <PROPERTY_DESCRIPTION>
 <SUBSTANCE_NAME />
 <SUBSTANCE_ID />
 <SUBSTANCE_ID />
 <AMOUNT_TYPE />
 <AMOUNT>
 <AVERAGE />
 <LOW_LIMIT />
 <HIGH_LIMIT />
 <UNIT />
 <NON_NUMERIC_VALUE />
 </AMOUNT>
 </PROPERTY_DESCRIPTION>
 </PROPERTY_GROUP>
 <MOLECULAR_WEIGHT>
 <MOLECULAR_WEIGHT_TYPE />
 <MOLECULAR_WEIGHT_METHOD />
 <AMOUNT>
 <AVERAGE />
 <LOW_LIMIT />
 <HIGH_LIMIT />
 <UNIT />
 <NON_NUMERIC_VALUE />
 </AMOUNT>
 </MOLECULAR_WEIGHT>
 <COMMENTS />
 <PUBLIC_DOMAIN />
</PROTEIN>

>  <COMMENTS>
Modifications: light chain C-terminal amide   N-terminal (imidazol-4-yl)acetic acid    1_1-3_-26 peg bridge

>  <CDBREGNO>
120218

>  <STRUCTURE_ID>
80157

$$$$
